21
Geometry for iteration 0
	    C    -1.3458016594   0.7667732650  -0.7813618934
	    C    -2.4238016594   1.3397732650  -0.1083618934
	    C     1.0161983406  -0.1372267350  -2.1093618934
	    C     1.6771983406  -1.2762267350  -0.0963618934
	    C    -1.4308016594   0.7237732650   2.0066381066
	    C     2.1001983406  -0.7292267350  -2.7363618934
	    C     2.7311983406  -1.8182267350  -0.8143618934
	    C    -0.3098016594   0.1717732650  -0.0613618934
	    C     0.8071983406  -0.4212267350  -0.7643618934
	    C    -2.4668016594   1.3187732650   1.2856381066
	    C    -0.3528016594   0.1507732650   1.3326381066
	    N     2.9661983406  -1.5652267350  -2.1213618934
	    O    -3.4578016594   1.8457732650   1.9046381066
	    F     0.6351983406  -0.4172267350   2.0396381066
	    H    -1.3268016594   0.7897732650  -1.8693618934
	    H    -3.2198016594   1.7957732650  -0.6943618934
	    H     0.3601983406   0.5257732650  -2.6633618934
	    H     1.5451983406  -1.5212267350   0.9526381066
	    H    -1.4398016594   0.6937732650   3.0946381066
	    H     2.3081983406  -0.5392267350  -3.7843618934
	    H     3.4371983406  -2.4912267350  -0.3393618934
21
Geometry for iteration 1
	    C    -1.3660181870   0.7751768392  -0.7714246287
	    C    -2.4402749501   1.3461661985  -0.1011314461
	    C     1.0383198995  -0.1493579993  -2.1137613581
	    C     1.6897754376  -1.2848543810  -0.1064084491
	    C    -1.4385575196   0.7303166546   2.0117736225
	    C     2.1234324871  -0.7409816352  -2.7373232740
	    C     2.7440217505  -1.8239637766  -0.8272011312
	    C    -0.3170768997   0.1747172543  -0.0655120493
	    C     0.8084489969  -0.4226911657  -0.7645904754
	    C    -2.4956946992   1.3341498248   1.3059284404
	    C    -0.3739949075   0.1640167637   1.3280625537
	    N     2.9855808104  -1.5737654698  -2.1271537006
	    O    -3.4825466879   1.8591128896   1.9294252210
	    F     0.6238046147  -0.4034450309   2.0306970857
	    H    -1.3538714258   0.7990223341  -1.8552001225
	    H    -3.2359963082   1.7997774750  -0.6822710711
	    H     0.3918266943   0.5113208396  -2.6744417884
	    H     1.5678153663  -1.5403431203   0.9320268255
	    H    -1.4380885415   0.6982737883   3.0958243541
	    H     2.3321865237  -0.5485309448  -3.7838027780
	    H     3.4470726981  -2.4978787726  -0.3511155908
21
Geometry for iteration 2
	    C    -1.3710944893   0.7751610624  -0.7631481718
	    C    -2.4421539889   1.3454038091  -0.1005545414
	    C     1.0550504315  -0.1610790708  -2.1108613138
	    C     1.7055341393  -1.2960512376  -0.1154740706
	    C    -1.4422488701   0.7343343499   2.0125866666
	    C     2.1381128435  -0.7489410167  -2.7386422327
	    C     2.7576969401  -1.8308989127  -0.8421120589
	    C    -0.3139033606   0.1707353251  -0.0675046108
	    C     0.8124219546  -0.4279156321  -0.7593570169
	    C    -2.5169816168   1.3461748742   1.3181238081
	    C    -0.3898931174   0.1729132781   1.3250530693
	    N     3.0005388864  -1.5802608229  -2.1370989069
	    O    -3.4984961885   1.8694313953   1.9379861254
	    F     0.6167320088  -0.3943597451   2.0289747500
	    H    -1.3601772961   0.7969254371  -1.8447069764
	    H    -3.2366705443   1.7968802211  -0.6797009846
	    H     0.4121888498   0.4996214836  -2.6720307019
	    H     1.5949093766  -1.5630913156   0.9157759492
	    H    -1.4373086378   0.7029247409   3.0934250717
	    H     2.3402279591  -0.5493888361  -3.7845193884
	    H     3.4584369320  -2.5060923114  -0.3655503851
21
Geometry for iteration 3
	    C    -1.3718797950   0.7731393458  -0.7543533917
	    C    -2.4411482195   1.3431086232  -0.0992452529
	    C     1.0688275022  -0.1708955540  -2.1070778201
	    C     1.7205143116  -1.3062593077  -0.1252697396
	    C    -1.4480931851   0.7394949163   2.0128788293
	    C     2.1488507729  -0.7544044757  -2.7419989306
	    C     2.7703677184  -1.8380478577  -0.8568266671
	    C    -0.3076296880   0.1648867476  -0.0678440052
	    C     0.8172287664  -0.4330763556  -0.7536892177
	    C    -2.5360833141   1.3570898475   1.3272857686
	    C    -0.4039374278   0.1803830641   1.3243531766
	    N     3.0138386836  -1.5861853578  -2.1491428006
	    O    -3.5133930050   1.8791833722   1.9408460953
	    F     0.6084609755  -0.3836293125   2.0357016055
	    H    -1.3617877308   0.7921587400  -1.8349624769
	    H    -3.2360956241   1.7930751160  -0.6764949167
	    H     0.4279471468   0.4914824030  -2.6669298456
	    H     1.6188808472  -1.5848737564   0.9019565744
	    H    -1.4421982587   0.7109883941   3.0919860926
	    H     2.3415974012  -0.5459070693  -3.7876135460
	    H     3.4676724502  -2.5150774875  -0.3782493321
21
Geometry for iteration -229408288
	    C    -1.3680948744   0.7687491179  -0.7465291800
	    C    -2.4379471624   1.3391076914  -0.0994262195
	    C     1.0782532156  -0.1769409898  -2.1030505452
	    C     1.7338933073  -1.3155355397  -0.1354013487
	    C    -1.4549651027   0.7452545819   2.0134884798
	    C     2.1542680638  -0.7568422216  -2.7467865886
	    C     2.7808173477  -1.8457500105  -0.8714978968
	    C    -0.2991243011   0.1578445128  -0.0647432631
	    C     0.8230565991  -0.4377122666  -0.7482119854
	    C    -2.5502129790   1.3650508325   1.3310026230
	    C    -0.4136958679   0.1852781947   1.3278379311
	    N     3.0231832741  -1.5912003779  -2.1629862996
	    O    -3.5260875555   1.8870505602   1.9364795096
	    F     0.6000056775  -0.3706554906   2.0544478244
	    H    -1.3583004607   0.7833546302  -1.8272317921
	    H    -3.2343965773   1.7871707095  -0.6762460099
	    H     0.4387616436   0.4894390488  -2.6597857877
	    H     1.6373203364  -1.6046629363   0.8905441451
	    H    -1.4512658542   0.7221109881   3.0923393859
	    H     2.3368073627  -0.5388021767  -3.7921113931
	    H     3.4742427134  -2.5256221983  -0.3913969030
21
Geometry for iteration 5
	    C    -1.3592964071   0.7640099475  -0.7401531220
	    C    -2.4303087887   1.3386203389  -0.1022863750
	    C     1.0795505929  -0.1833186991  -2.0994370027
	    C     1.7429221994  -1.3265886124  -0.1444230478
	    C    -1.4572511746   0.7582524596   2.0146850691
	    C     2.1485053001  -0.7646988451  -2.7528764320
	    C     2.7836054089  -1.8596103695  -0.8864447991
	    C    -0.2895912399   0.1521414471  -0.0567312575
	    C     0.8281691188  -0.4434357546  -0.7427757299
	    C    -2.5533740988   1.3771060874   1.3287655430
	    C    -0.4160641743   0.1918015228   1.3361418498
	    N     3.0203505845  -1.6036684799  -2.1787262469
	    O    -3.5295656820   1.9031821613   1.9259164815
	    F     0.5943594478  -0.3520618227   2.0825213480
	    H    -1.3496225564   0.7691292682  -1.8212008174
	    H    -3.2273018522   1.7833432151  -0.6816816667
	    H     0.4422324435   0.4895005376  -2.6513415440
	    H     1.6486331124  -1.6212458032   0.8820151299
	    H    -1.4561359179   0.7442148242   3.0937490389
	    H     2.3211101888  -0.5407869396  -3.7983814471
	    H     3.4739445821  -2.5435665185  -0.4079204853
21
Geometry for iteration 6
	    C    -1.3511721529   0.7567393711  -0.7350757770
	    C    -2.4265443498   1.3322100424  -0.1070743334
	    C     1.0819421755  -0.1811750669  -2.0963288827
	    C     1.7515390107  -1.3344524567  -0.1537928535
	    C    -1.4643454746   0.7625434696   2.0150825056
	    C     2.1446146531  -0.7646231511  -2.7581348358
	    C     2.7868231611  -1.8693676848  -0.9010029826
	    C    -0.2818143370   0.1463278417  -0.0470367088
	    C     0.8346842749  -0.4451765605  -0.7388706474
	    C    -2.5589743860   1.3777122963   1.3231391728
	    C    -0.4186396098   0.1929757400   1.3459983605
	    N     3.0173924884  -1.6097973174  -2.1936108764
	    O    -3.5389032236   1.9045676963   1.9126729390
	    F     0.5859230145  -0.3381740842   2.1130859952
	    H    -1.3406235619   0.7515781047  -1.8160775825
	    H    -3.2233712409   1.7711968638  -0.6913746439
	    H     0.4493768624   0.5005932074  -2.6426889003
	    H     1.6562167278  -1.6312766066   0.8738602904
	    H    -1.4670059212   0.7552539794   3.0942334057
	    H     2.3108058596  -0.5352064513  -3.8034205899
	    H     3.4757992229  -2.5571524196  -0.4262478073
21
Geometry for iteration 926299190
	    C    -1.3461931151   0.7523402379  -0.7321752682
	    C    -2.4250098697   1.3274925874  -0.1100305290
	    C     1.0847713622  -0.1738791285  -2.0914151329
	    C     1.7548618592  -1.3391667049  -0.1575022126
	    C    -1.4678349446   0.7675745122   2.0162499856
	    C     2.1411639024  -0.7616122697  -2.7597083206
	    C     2.7850987435  -1.8769443175  -0.9093620204
	    C    -0.2772440028   0.1449210904  -0.0399916556
	    C     0.8403679334  -0.4421613381  -0.7340920606
	    C    -2.5618151670   1.3776983390   1.3193273043
	    C    -0.4185405279   0.1967069290   1.3532246774
	    N     3.0115294347  -1.6146204086  -2.2022987794
	    O    -3.5448142284   1.9041105293   1.9040147084
	    F     0.5845874725  -0.3232265843   2.1314290365
	    H    -1.3373498121   0.7357448979  -1.8133406568
	    H    -3.2230243757   1.7597192722  -0.6982018723
	    H     0.4584123941   0.5187712082  -2.6318533267
	    H     1.6597823879  -1.6374670045   0.8706880498
	    H    -1.4719699201   0.7667400883   3.0956064189
	    H     2.3042969333  -0.5285621177  -3.8047108939
	    H     3.4726467335  -2.5688830041  -0.4385222043
21
Geometry for iteration 0
	    C    -1.3424228559   0.7447761727  -0.7305113069
	    C    -2.4224218908   1.3232661957  -0.1142247389
	    C     1.0882921700  -0.1715300533  -2.0916981996
	    C     1.7612297467  -1.3432702303  -0.1643748917
	    C    -1.4709957067   0.7686314411   2.0138738541
	    C     2.1399547915  -0.7626992823  -2.7644124274
	    C     2.7873426051  -1.8832473598  -0.9191641548
	    C    -0.2735078268   0.1387789923  -0.0358602040
	    C     0.8449993899  -0.4439007606  -0.7346232287
	    C    -2.5634993046   1.3782610808   1.3145790285
	    C    -0.4186374622   0.1967438436   1.3568298822
	    N     3.0076112445  -1.6213302403  -2.2128733847
	    O    -3.5479071035   1.9058455821   1.8962247084
	    F     0.5776861428  -0.3216808891   2.1452555913
	    H    -1.3326185289   0.7208802936  -1.8109419546
	    H    -3.2184278941   1.7525753349  -0.7064208573
	    H     0.4673032378   0.5279796560  -2.6283105583
	    H     1.6675490420  -1.6359682236   0.8662559611
	    H    -1.4769620593   0.7701176229   3.0928914362
	    H     2.2999578037  -0.5286812647  -3.8095615002
	    H     3.4747948250  -2.5771404166  -0.4515338013
21
Geometry for iteration 0
	    C    -1.3414653282   0.7418866258  -0.7310981648
	    C    -2.4218942488   1.3210035937  -0.1158738850
	    C     1.0891883818  -0.1700077671  -2.0915516392
	    C     1.7621912342  -1.3449671283  -0.1653796445
	    C    -1.4697580871   0.7699982639   2.0128045123
	    C     2.1405953234  -0.7610862082  -2.7649875142
	    C     2.7876899936  -1.8846157969  -0.9210377390
	    C    -0.2728026116   0.1366419217  -0.0354281266
	    C     0.8465871918  -0.4441747986  -0.7348867352
	    C    -2.5620037716   1.3786932014   1.3127708390
	    C    -0.4179323220   0.1952052150   1.3570436402
	    N     3.0079856361  -1.6201336754  -2.2142831262
	    O    -3.5456987644   1.9083107528   1.8941937706
	    F     0.5796706822  -0.3187114483   2.1459545966
	    H    -1.3308129577   0.7166181359  -1.8114695881
	    H    -3.2174557865   1.7490239011  -0.7095283623
	    H     0.4687090015   0.5307640270  -2.6270209012
	    H     1.6674634886  -1.6387330146   0.8646457296
	    H    -1.4752787020   0.7733080835   3.0918781092
	    H     2.3015727198  -0.5251373332  -3.8095870757
	    H     3.4747943352  -2.5800238868  -0.4551978672
21
Geometry for iteration 10
	    C    -1.3414020635   0.7419717210  -0.7310703386
	    C    -2.4219380217   1.3209033663  -0.1159221106
	    C     1.0893710800  -0.1702919784  -2.0918606843
	    C     1.7622572297  -1.3451658067  -0.1656901523
	    C    -1.4697823949   0.7698613881   2.0126389758
	    C     2.1408692601  -0.7614800136  -2.7651926606
	    C     2.7876605427  -1.8850392189  -0.9212598411
	    C    -0.2726300034   0.1366125736  -0.0355379886
	    C     0.8467588512  -0.4441303093  -0.7351708741
	    C    -2.5623510371   1.3783203063   1.3127943589
	    C    -0.4174571153   0.1959418501   1.3569895066
	    N     3.0077220782  -1.6210012424  -2.2146350920
	    O    -3.5461435071   1.9075500298   1.8942921438
	    F     0.5790149579  -0.3197137735   2.1460559389
	    H    -1.3311178667   0.7159919585  -1.8114223185
	    H    -3.2176177874   1.7484362420  -0.7097611612
	    H     0.4690204227   0.5305163107  -2.6274069736
	    H     1.6673386694  -1.6387095581   0.8643989794
	    H    -1.4755501734   0.7726913625   3.0917224980
	    H     2.3015402153  -0.5259411220  -3.8099378430
	    H     3.4747506254  -2.5804442094  -0.4554068604
21
Geometry for iteration 10
	    C    -1.3414583367   0.7417628981  -0.7311638725
	    C    -2.4219407662   1.3207872547  -0.1159775590
	    C     1.0892552262  -0.1703161578  -2.0917858702
	    C     1.7621997124  -1.3452327139  -0.1656145630
	    C    -1.4697949400   0.7697636273   2.0126422791
	    C     2.1407078216  -0.7614493764  -2.7651697618
	    C     2.7876507906  -1.8849937773  -0.9212284101
	    C    -0.2727408793   0.1364609581  -0.0355627831
	    C     0.8466484815  -0.4443188264  -0.7351085023
	    C    -2.5622020682   1.3783406510   1.3127030931
	    C    -0.4177193571   0.1954072848   1.3569369246
	    N     3.0078294764  -1.6207337875  -2.2145387821
	    O    -3.5459458194   1.9077643553   1.8941634270
	    F     0.5793186796  -0.3193792490   2.1459261041
	    H    -1.3309901431   0.7161387994  -1.8115257241
	    H    -3.2175615005   1.7485638627  -0.7097243209
	    H     0.4688402037   0.5304738714  -2.6272936689
	    H     1.6673765151  -1.6388875347   0.8644427070
	    H    -1.4754392079   0.7728335520   3.0917209057
	    H     2.3015320839  -0.5257055240  -3.8098421952
	    H     3.4747479896  -2.5804002912  -0.4553819248
21
Geometry for iteration 11
	    C    -1.3414500398   0.7417549709  -0.7311827120
	    C    -2.4219324694   1.3207793274  -0.1159963985
	    C     1.0892635230  -0.1703240850  -2.0918047097
	    C     1.7622080093  -1.3452406412  -0.1656334026
	    C    -1.4697866432   0.7697557000   2.0126234395
	    C     2.1407161184  -0.7614573036  -2.7651886014
	    C     2.7876590875  -1.8850017046  -0.9212472496
	    C    -0.2727325825   0.1364530308  -0.0355816226
	    C     0.8466567783  -0.4443267537  -0.7351273419
	    C    -2.5621937714   1.3783327237   1.3126842535
	    C    -0.4177110603   0.1953993575   1.3569180850
	    N     3.0078377732  -1.6207417148  -2.2145576217
	    O    -3.5459375226   1.9077564280   1.8941445874
	    F     0.5793269764  -0.3193871762   2.1459072645
	    H    -1.3309818463   0.7161308721  -1.8115445637
	    H    -3.2175532036   1.7485559354  -0.7097431604
	    H     0.4688485006   0.5304659441  -2.6273125084
	    H     1.6673848119  -1.6388954620   0.8644238674
	    H    -1.4754309110   0.7728256247   3.0917020662
	    H     2.3015403807  -0.5257134513  -3.8098610348
	    H     3.4747562864  -2.5804082185  -0.4554007644
