22
Geometry for iteration 0
	    C    -1.3220451620   0.7549375345  -0.8002041134
	    C    -2.4000451620   1.3279375345  -0.1272041134
	    C     1.0389548380  -0.1500624655  -2.1282041134
	    C     1.6999548380  -1.2890624655  -0.1152041134
	    C    -1.4070451620   0.7119375345   1.9877958866
	    C     2.1229548380  -0.7430624655  -2.7552041134
	    C     2.7549548380  -1.8310624655  -0.8322041134
	    C    -0.2860451620   0.1599375345  -0.0802041134
	    C     0.8309548380  -0.4340624655  -0.7832041134
	    C    -2.4430451620   1.3069375345   1.2667958866
	    C    -0.3290451620   0.1389375345   1.3137958866
	    N     2.9899548380  -1.5790624655  -2.1402041134
	    O    -3.4960451620   1.8669375345   1.9237958866
	    F     0.6589548380  -0.4290624655   2.0207958866
	    H    -1.3030451620   0.7789375345  -1.8872041134
	    H    -3.2050451620   1.7889375345  -0.6942041134
	    H     0.3829548380   0.5129375345  -2.6822041134
	    H     1.5689548380  -1.5340624655   0.9337958866
	    H    -1.4350451620   0.6919375345   3.0737958866
	    H     2.3309548380  -0.5530624655  -3.8032041134
	    H     3.4599548380  -2.5040624655  -0.3582041134
	    H    -3.3820451620   1.7729375345   2.8827958866
22
Geometry for iteration 942814257
	    C    -1.3441596093   0.7620861513  -0.7813121992
	    C    -2.4176948344   1.3324462771  -0.1080463761
	    C     1.0635209279  -0.1620126291  -2.1325247919
	    C     1.7123763364  -1.2983471610  -0.1283582898
	    C    -1.4155862428   0.7199472061   1.9914288376
	    C     2.1481879540  -0.7538444824  -2.7573363124
	    C     2.7677320110  -1.8385267255  -0.8474244032
	    C    -0.2942397876   0.1626855744  -0.0826592526
	    C     0.8357106368  -0.4367693647  -0.7859028993
	    C    -2.4543780619   1.3121382346   1.2804109884
	    C    -0.3494447042   0.1528585988   1.3079668058
	    N     3.0078144736  -1.5866843042  -2.1459427157
	    O    -3.5112088148   1.8749783234   1.9256610741
	    F     0.6415191282  -0.4077938222   2.0136376354
	    H    -1.3374611025   0.7880808124  -1.8627922223
	    H    -3.2252010160   1.7912042967  -0.6662534303
	    H     0.4188621228   0.4997162327  -2.6933987228
	    H     1.5894926394  -1.5548239474   0.9091540324
	    H    -1.4318318614   0.6980826089   3.0750227891
	    H     2.3575504452  -0.5605884461  -3.8027255099
	    H     3.4685886499  -2.5135677827  -0.3728777291
	    H    -3.3991428551   1.7853601080   2.8807821976
22
Geometry for iteration 2
	    C    -1.3483513470   0.7582556943  -0.7641110964
	    C    -2.4203562076   1.3295273671  -0.0987131110
	    C     1.0769254631  -0.1709192600  -2.1236002043
	    C     1.7298154223  -1.3134499074  -0.1369432568
	    C    -1.4216247780   0.7265033029   1.9971632746
	    C     2.1579447541  -0.7564899778  -2.7582667235
	    C     2.7811951838  -1.8477164131  -0.8671691692
	    C    -0.2925494341   0.1573387473  -0.0765001222
	    C     0.8432772427  -0.4449470050  -0.7772001623
	    C    -2.4589079021   1.3147779156   1.2869211212
	    C    -0.3645170470   0.1619247965   1.3105505513
	    N     3.0158310599  -1.5886265394  -2.1581604494
	    O    -3.5234861694   1.8841733196   1.9114115258
	    F     0.6282858432  -0.3910748218   2.0208745850
	    H    -1.3434727105   0.7802317735  -1.8423804070
	    H    -3.2268571495   1.7852349236  -0.6541157445
	    H     0.4349672263   0.4929852907  -2.6806848760
	    H     1.6208176581  -1.5863316230   0.8917585119
	    H    -1.4297416144   0.7053686862   3.0782659973
	    H     2.3579930755  -0.5529210189  -3.8021001873
	    H     3.4805558764  -2.5260229212  -0.3971404010
	    H    -3.4199536927   1.8026134910   2.8649252328
22
Geometry for iteration 31989312
	    C    -1.3452948358   0.7503329959  -0.7527681137
	    C    -2.4186342322   1.3238873978  -0.0964602450
	    C     1.0847434321  -0.1745156875  -2.1159731688
	    C     1.7441620588  -1.3262435888  -0.1462325146
	    C    -1.4272263024   0.7329969819   2.0031190402
	    C     2.1613322115  -0.7547016788  -2.7626286718
	    C     2.7909706786  -1.8572771944  -0.8858217810
	    C    -0.2866671448   0.1492370542  -0.0686720629
	    C     0.8513291276  -0.4512086894  -0.7695717772
	    C    -2.4624333229   1.3167220832   1.2889571535
	    C    -0.3729488534   0.1672312665   1.3179383294
	    N     3.0199761953  -1.5898841664  -2.1732060256
	    O    -3.5338328899   1.8916660030   1.8960304911
	    F     0.6191923583  -0.3747770200   2.0419586871
	    H    -1.3397340106   0.7654154141  -1.8301868676
	    H    -3.2243096283   1.7761069802  -0.6527596229
	    H     0.4439274155   0.4945265060  -2.6668555600
	    H     1.6423897744  -1.6126648499   0.8790541081
	    H    -1.4304972126   0.7150572667   3.0829544679
	    H     2.3508424584  -0.5399795116  -3.8056043333
	    H     3.4877431885  -2.5400406134  -0.4191312092
	    H    -3.4383804208   1.8180986611   2.8502195697
22
Geometry for iteration 4
	    C    -1.3407709968   0.7402696071  -0.7460125167
	    C    -2.4165596388   1.3162431176  -0.0983286688
	    C     1.0898579020  -0.1728325493  -2.1107390597
	    C     1.7535579217  -1.3368109382  -0.1561994607
	    C    -1.4318472468   0.7398369870   2.0070773816
	    C     2.1617961409  -0.7503975221  -2.7678012952
	    C     2.7957092683  -1.8674926743  -0.9025143017
	    C    -0.2802500850   0.1408179516  -0.0609736300
	    C     0.8584790188  -0.4542209771  -0.7643532047
	    C    -2.4658373978   1.3178484147   1.2878031534
	    C    -0.3764527204   0.1712241532   1.3262202697
	    N     3.0207151996  -1.5919205217  -2.1881144333
	    O    -3.5423321866   1.8962386118   1.8824752560
	    F     0.6138311142  -0.3566583918   2.0684399858
	    H    -1.3352495423   0.7457305609  -1.8236659778
	    H    -3.2224563105   1.7637465594  -0.6573082840
	    H     0.4521632611   0.5044335218  -2.6552858917
	    H     1.6530604224  -1.6337056351   0.8684051945
	    H    -1.4313894336   0.7268413351   3.0864662742
	    H     2.3430353195  -0.5253114631  -3.8098520552
	    H     3.4885651570  -2.5559228229  -0.4384348376
	    H    -3.4525236925   1.8300840648   2.8380215452
22
Geometry for iteration 5
	    C    -1.3425220841   0.7176598042  -0.7409971231
	    C    -2.4208047410   1.2962130163  -0.1014549859
	    C     1.0859729616  -0.1781930413  -2.1099266566
	    C     1.7658826593  -1.3377763879  -0.1628713765
	    C    -1.4281371681   0.7596451840   2.0092656445
	    C     2.1516936852  -0.7574141536  -2.7758927157
	    C     2.8014419191  -1.8719876010  -0.9152309472
	    C    -0.2742135185   0.1329180119  -0.0527741441
	    C     0.8650576752  -0.4548301790  -0.7602507186
	    C    -2.4681859427   1.3191120456   1.2851318467
	    C    -0.3698615449   0.1876443247   1.3345368364
	    N     3.0155463007  -1.5991494856  -2.2031028534
	    O    -3.5486660986   1.8987378219   1.8709188938
	    F     0.6242024208  -0.3124491899   2.0947407437
	    H    -1.3432587845   0.7012164420  -1.8187245090
	    H    -3.2323223118   1.7285790857  -0.6641792832
	    H     0.4485118008   0.5025541937  -2.6505901775
	    H     1.6700468567  -1.6333598327   0.8646600054
	    H    -1.4191582355   0.7624192191   3.0885123682
	    H     2.3210085889  -0.5319954289  -3.8196826841
	    H     3.4953206763  -2.5599211447  -0.4521236640
	    H    -3.4574993360   1.8482945759   2.8275455803
22
Geometry for iteration 6
	    C    -1.3412734588   0.7017484125  -0.7376161076
	    C    -2.4222175618   1.2821482558  -0.1053406974
	    C     1.0914377725  -0.1685678965  -2.1049785694
	    C     1.7671618134  -1.3496521731  -0.1716205469
	    C    -1.4308869136   0.7656018566   2.0094424114
	    C     2.1499902468  -0.7526080600  -2.7784184151
	    C     2.7964515725  -1.8875561784  -0.9291993342
	    C    -0.2710567377   0.1230871817  -0.0453604402
	    C     0.8719619133  -0.4530068228  -0.7562949619
	    C    -2.4723392400   1.3157886032   1.2811473841
	    C    -0.3682929843   0.1921209257   1.3414159439
	    N     3.0080683851  -1.6075368138  -2.2159210479
	    O    -3.5558718617   1.8955885649   1.8605304314
	    F     0.6252536836  -0.2905373887   2.1159864947
	    H    -1.3445266644   0.6694452177  -1.8151554230
	    H    -3.2352097531   1.7063389869  -0.6723254611
	    H     0.4640762922   0.5278254215  -2.6379662656
	    H     1.6683257736  -1.6500645754   0.8555887931
	    H    -1.4188464695   0.7769992912   3.0886439954
	    H     2.3166797123  -0.5199705577  -3.8209897410
	    H     3.4849204892  -2.5844406691  -0.4714756973
	    H    -3.4660713760   1.8528811670   2.8177350761
22
Geometry for iteration 7
	    C    -1.3474678012   0.6800507367  -0.7367203229
	    C    -2.4278145099   1.2651164028  -0.1082093646
	    C     1.0963469892  -0.1587814281  -2.1005501503
	    C     1.7637373944  -1.3625127349  -0.1787622510
	    C    -1.4294022089   0.7726832680   2.0080492398
	    C     2.1555047726  -0.7389396592  -2.7765010570
	    C     2.7939346017  -1.8955208432  -0.9378717947
	    C    -0.2751291467   0.1072884103  -0.0420537337
	    C     0.8748722723  -0.4538419106  -0.7543760278
	    C    -2.4733700708   1.3148851970   1.2779685630
	    C    -0.3680964866   0.1916074316   1.3438727003
	    N     3.0101330240  -1.6015051628  -2.2207943119
	    O    -3.5536403873   1.9028839782   1.8546369006
	    F     0.6289204169  -0.2752139200   2.1242012161
	    H    -1.3538008651   0.6343124218  -1.8137091601
	    H    -3.2422309076   1.6830629585  -0.6777197357
	    H     0.4755053175   0.5479804611  -2.6273749467
	    H     1.6522074753  -1.6783356459   0.8432541325
	    H    -1.4111014523   0.7977990095   3.0870463154
	    H     2.3258893599  -0.4959276232  -3.8161163255
	    H     3.4773839662  -2.6011254534  -0.4861544137
	    H    -3.4585764030   1.8742994303   2.8118410542
22
Geometry for iteration 8
	    C    -1.3312436584   0.6984212254  -0.7354410236
	    C    -2.4187171478   1.2746515179  -0.1107949378
	    C     1.1022812125  -0.1511820896  -2.0979030213
	    C     1.7689982691  -1.3575595305  -0.1769496161
	    C    -1.4316814022   0.7742517592   2.0086896488
	    C     2.1415897580  -0.7567394019  -2.7831506781
	    C     2.7819562416  -1.9117766652  -0.9443038705
	    C    -0.2606229217   0.1276691196  -0.0368456082
	    C     0.8867618557  -0.4400546953  -0.7495954090
	    C    -2.4768268464   1.3094475008   1.2751654020
	    C    -0.3569777925   0.2129953000   1.3486280778
	    N     2.9840257098  -1.6346242827  -2.2334805222
	    O    -3.5738343876   1.8690866474   1.8491577937
	    F     0.6385549817  -0.2495470902   2.1319801636
	    H    -1.3307722851   0.6552939036  -1.8123927500
	    H    -3.2333372111   1.6872136038  -0.6838218841
	    H     0.4875711705   0.5634813284  -2.6209698096
	    H     1.6796377359  -1.6456316961   0.8554059335
	    H    -1.4245967995   0.7880892936   3.0881371914
	    H     2.3010548018  -0.5291598996  -3.8281470129
	    H     3.4640134989  -2.6201906883  -0.4951053872
	    H    -3.4921845212   1.8211937176   2.8069011417
22
Geometry for iteration 8
	    C    -1.3395522775   0.6886767494  -0.7365233960
	    C    -2.4234802729   1.2693317297  -0.1099261792
	    C     1.0991363831  -0.1555470384  -2.0997084958
	    C     1.7662189646  -1.3606043635  -0.1783551469
	    C    -1.4307878053   0.7729181250   2.0079909365
	    C     2.1485344289  -0.7484897455  -2.7803985877
	    C     2.7879168365  -1.9042887269  -0.9416369412
	    C    -0.2680669418   0.1169126207  -0.0398980290
	    C     0.8806293053  -0.4475043122  -0.7524533565
	    C    -2.4753641608   1.3116336971   1.2762084672
	    C    -0.3627069765   0.2017096011   1.3458076776
	    N     2.9971815138  -1.6187753219  -2.2277832782
	    O    -3.5641341037   1.8855317797   1.8516859115
	    F     0.6335776158  -0.2629799486   2.1276401614
	    H    -1.3424797062   0.6442443838  -1.8135060414
	    H    -3.2380166831   1.6845942769  -0.6811809755
	    H     0.4813138158   0.5551809834  -2.6246327864
	    H     1.6655191170  -1.6624706006   0.8491629080
	    H    -1.4181444965   0.7924309727   3.0872719033
	    H     2.3135937188  -0.5132491236  -3.8227881426
	    H     3.4706607181  -2.6112820537  -0.4911308179
	    H    -3.4758987315   1.8473551931   2.8093180311
22
Geometry for iteration 0
	    C    -1.3440125435   0.6820630286  -0.7368579476
	    C    -2.4259912298   1.2655626994  -0.1096013142
	    C     1.0959382516  -0.1599131413  -2.1004684900
	    C     1.7639067594  -1.3652091708  -0.1796159751
	    C    -1.4300340484   0.7723283120   2.0074155094
	    C     2.1518406192  -0.7439824945  -2.7784546984
	    C     2.7913740428  -1.9008708720  -0.9404351654
	    C    -0.2729747819   0.1085715912  -0.0409574888
	    C     0.8770720983  -0.4532972523  -0.7536828452
	    C    -2.4747051232   1.3116803957   1.2763352908
	    C    -0.3657721796   0.1950607974   1.3447157026
	    N     3.0052277078  -1.6082028479  -2.2240815677
	    O    -3.5589304868   1.8931506588   1.8522522157
	    F     0.6326158641  -0.2668348931   2.1251399855
	    H    -1.3482540943   0.6359889767  -1.8136823912
	    H    -3.2398191097   1.6827451296  -0.6803598862
	    H     0.4753148153   0.5479315046  -2.6257836764
	    H     1.6542302125  -1.6785442200   0.8431595456
	    H    -1.4142227836   0.7967106657   3.0864271699
	    H     2.3213481334  -0.5025136568  -3.8185813920
	    H     3.4748257588  -2.6074477033  -0.4904923498
	    H    -3.4671556913   1.8600525577   2.8094830628
22
Geometry for iteration 9
	    C    -1.3418736247   0.6849113915  -0.7367683983
	    C    -2.4248276217   1.2669878073  -0.1098365163
	    C     1.0974493253  -0.1581888393  -2.1001709771
	    C     1.7649752463  -1.3633646784  -0.1790664456
	    C    -1.4305022004   0.7721623817   2.0076336330
	    C     2.1501188724  -0.7467058694  -2.7795174427
	    C     2.7895739699  -1.9030466470  -0.9411224024
	    C    -0.2706099188   0.1122827309  -0.0405085720
	    C     0.8787626154  -0.4508594137  -0.7531500217
	    C    -2.4751271042   1.3111970248   1.2762039004
	    C    -0.3643262664   0.1979229661   1.3451815788
	    N     3.0011535579  -1.6139659652  -2.2260328212
	    O    -3.5616332946   1.8888851199   1.8519149641
	    F     0.6330115729  -0.2653689578   2.1263129316
	    H    -1.3454587933   0.6396596709  -1.8136730330
	    H    -3.2390130436   1.6832122745  -0.6808390289
	    H     0.4782215917   0.5511002661  -2.6252891579
	    H     1.6597515024  -1.6709595881   0.8461355918
	    H    -1.4162788287   0.7941109725   3.0867878049
	    H     2.3174221436  -0.5083624386  -3.8207902442
	    H     3.4726667022  -2.6098314144  -0.4908892172
	    H    -3.4716342122   1.8532512711   2.8093571682
22
Geometry for iteration 0
	    C    -1.3397262807   0.6877540761  -0.7366729654
	    C    -2.4236542761   1.2684090564  -0.1100757487
	    C     1.0989623799  -0.1564697117  -2.0998580652
	    C     1.7660449614  -1.3615270368  -0.1785047164
	    C    -1.4309618085   0.7719954517   2.0078413670
	    C     2.1483604257  -0.7494124188  -2.7805481571
	    C     2.7877428333  -1.9052114002  -0.9417865106
	    C    -0.2682409451   0.1159899474  -0.0400475985
	    C     0.8804553021  -0.4484269855  -0.7526029260
	    C    -2.4755381640   1.3107110238   1.2760588977
	    C    -0.3628809798   0.2007869278   1.3456581081
	    N     2.9970075106  -1.6196979951  -2.2279328476
	    O    -3.5643081069   1.8846091064   1.8515363420
	    F     0.6334036126  -0.2639026219   2.1274905919
	    H    -1.3426537094   0.6433217105  -1.8136556108
	    H    -3.2381906864   1.6836716036  -0.6813305450
	    H     0.4811398126   0.5542583101  -2.6247823559
	    H     1.6653451138  -1.6633932739   0.8490133385
	    H    -1.4183184997   0.7915082994   3.0871223339
	    H     2.3134197156  -0.5141717969  -3.8229377121
	    H     3.4704867149  -2.6122047270  -0.4912803873
	    H    -3.4760727347   1.8464325198   2.8091684617
