21
Geometry for iteration 0
	    C    -1.3451525179   0.7678480218  -0.7811437264
	    C    -2.4231525179   1.3408480218  -0.1081437264
	    C     1.9778474821  -0.7321519782  -0.0801437264
	    C     0.7148474821  -0.6821519782  -2.1261437264
	    C    -1.4301525179   0.7248480218   2.0068562736
	    C     3.0168474821  -1.3001519782  -0.7981437264
	    C     1.8118474821  -1.2521519782  -2.7531437264
	    C    -0.3091525179   0.1728480218  -0.0611437264
	    C     0.8078474821  -0.4201519782  -0.7641437264
	    C    -2.4661525179   1.3198480218   1.2858562736
	    C    -0.3521525179   0.1518480218   1.3328562736
	    N     2.9638474821  -1.5691519782  -2.1221437264
	    O    -3.4571525179   1.8468480218   1.9048562736
	    F     0.6358474821  -0.4161519782   2.0398562736
	    H    -1.3261525179   0.7908480218  -1.8691437264
	    H    -3.2191525179   1.7968480218  -0.6941437264
	    H     2.0868474821  -0.5431519782   0.9828562736
	    H    -0.1811525179  -0.4521519782  -2.6931437264
	    H    -1.4391525179   0.6948480218   3.0948562736
	    H     3.9498474821  -1.5631519782  -0.3111437264
	    H     1.7898474821  -1.4751519782  -3.8151437264
21
Geometry for iteration 1
	    C    -1.3634389995   0.7803126612  -0.7710142735
	    C    -2.4377971388   1.3509171386  -0.1005737288
	    C     1.9920310955  -0.7374618058  -0.0900712776
	    C     0.7374791242  -0.6939915618  -2.1310134495
	    C    -1.4399168736   0.7275700223   2.0119126839
	    C     3.0288851297  -1.3076588053  -0.8109931742
	    C     1.8342014576  -1.2657208811  -2.7542747683
	    C    -0.3152117283   0.1782072684  -0.0653819296
	    C     0.8101199313  -0.4194461043  -0.7647524935
	    C    -2.4953222248   1.3347962415   1.3063671836
	    C    -0.3743368578   0.1632850576   1.3281284430
	    N     2.9814930254  -1.5811996455  -2.1279672803
	    O    -3.4826348852   1.8587554267   1.9299774635
	    F     0.6186804588  -0.4128161146   2.0305368535
	    H    -1.3490300018   0.8087330420  -1.8546299877
	    H    -3.2318812997   1.8076500982  -0.6814938935
	    H     2.1151428314  -0.5507572487   0.9627373732
	    H    -0.1510637078  -0.4706805724  -2.7051300646
	    H    -1.4419710444   0.6906686644   3.0958001582
	    H     3.9608159820  -1.5680712780  -0.3224549677
	    H     1.8105528505  -1.4912831450  -3.8147271247
21
Geometry for iteration 825505843
	    C    -1.3630655777   0.7835246535  -0.7531597195
	    C    -2.4357866849   1.3517664422  -0.1013772308
	    C     2.0269537652  -0.7508171533  -0.1061940588
	    C     0.7650059624  -0.7046417310  -2.1189333355
	    C    -1.4584948889   0.7322595649   2.0134845811
	    C     3.0529507553  -1.3201693636  -0.8432756968
	    C     1.8495863402  -1.2754974183  -2.7580346897
	    C    -0.3026873992   0.1763576382  -0.0622676048
	    C     0.8223086233  -0.4204201198  -0.7489241902
	    C    -2.5393896054   1.3552890120   1.3238436123
	    C    -0.4067855023   0.1811737912   1.3294139608
	    N     2.9994236404  -1.5945507994  -2.1527566754
	    O    -3.5226075363   1.8743736205   1.9350038413
	    F     0.5876373331  -0.4088510778   2.0416193363
	    H    -1.3407446576   0.8138692708  -1.8335379430
	    H    -3.2247692484   1.8088876965  -0.6805347093
	    H     2.1843007553  -0.5687776946   0.9353488730
	    H    -0.1245514623  -0.4854214326  -2.6881732658
	    H    -1.4646445630   0.6904848081   3.0919407295
	    H     3.9859910767  -1.5748189847  -0.3552817958
	    H     1.8003841154  -1.4952724009  -3.8181239890
21
Geometry for iteration 0
	    C    -1.3488450327   0.7802049049  -0.7388350795
	    C    -2.4245560918   1.3494133843  -0.1030214219
	    C     2.0575330450  -0.7619197708  -0.1257733004
	    C     0.7823411566  -0.7130527294  -2.1121932874
	    C    -1.4739767059   0.7364739630   2.0146246378
	    C     3.0779407547  -1.3278014353  -0.8721597070
	    C     1.8573252446  -1.2809741393  -2.7682874408
	    C    -0.2794857727   0.1732744791  -0.0526222419
	    C     0.8392362412  -0.4233715921  -0.7399930637
	    C    -2.5612780362   1.3647481700   1.3261270685
	    C    -0.4182200061   0.1920385287   1.3404335673
	    N     3.0158583159  -1.6028832452  -2.1802053947
	    O    -3.5446876118   1.8817347724   1.9216207409
	    F     0.5552391149  -0.4125218343   2.0856031743
	    H    -1.3165842460   0.8203935910  -1.8185948554
	    H    -3.2101037967   1.8125195897  -0.6831944509
	    H     2.2342614834  -0.5736022691   0.9146254179
	    H    -0.1147375193  -0.5058215957  -2.6739367392
	    H    -1.4951314731   0.6910109460   3.0926564918
	    H     4.0126033433  -1.5742047935  -0.3828305742
	    H     1.7826517894  -1.4985445181  -3.8271536803
21
Geometry for iteration 0
	    C    -1.3358801602   0.7758969379  -0.7324498835
	    C    -2.4171234931   1.3451356059  -0.1089375992
	    C     2.0723851282  -0.7682208718  -0.1389904883
	    C     0.7842903607  -0.7172417376  -2.1098138270
	    C    -1.4810230989   0.7412128610   2.0144679100
	    C     3.0914323610  -1.3280121048  -0.8903929548
	    C     1.8570597993  -1.2777548736  -2.7754671984
	    C    -0.2649030069   0.1706268431  -0.0420173932
	    C     0.8479983327  -0.4258732906  -0.7368799514
	    C    -2.5673038638   1.3676038521   1.3197745440
	    C    -0.4192334784   0.1949415087   1.3512041888
	    N     3.0239236918  -1.5962457623  -2.1996788523
	    O    -3.5539611835   1.8850078330   1.9058270507
	    F     0.5407167177  -0.4048857506   2.1242248442
	    H    -1.2912124223   0.8284037348  -1.8114212133
	    H    -3.1973451305   1.8112366569  -0.6949305675
	    H     2.2482277703  -0.5830731667   0.9048377170
	    H    -0.1198593568  -0.5247869036  -2.6657457679
	    H    -1.5102845527   0.6951103052   3.0924205642
	    H     4.0264678214  -1.5761016071  -0.4031805707
	    H     1.7726430998  -1.4913725547  -3.8338448904
21
Geometry for iteration 5
	    C    -1.3229183973   0.7721102155  -0.7496335648
	    C    -2.4135973216   1.3458107591  -0.1477794514
	    C     2.0749730883  -0.7759447330  -0.1198937209
	    C     0.8005895398  -0.7309914102  -2.0985374392
	    C    -1.5067483910   0.7601411907   1.9917173609
	    C     3.1000277264  -1.3379636553  -0.8602160747
	    C     1.8795892507  -1.2909654683  -2.7542642379
	    C    -0.2611333879   0.1700438083  -0.0409722236
	    C     0.8547541727  -0.4333758534  -0.7260155578
	    C    -2.5854339304   1.3782248767   1.2782816058
	    C    -0.4345387105   0.2086634163   1.3494038651
	    N     3.0426675919  -1.6072275225  -2.1697328123
	    O    -3.5797552572   1.9010615734   1.8470224556
	    F     0.5113754237  -0.3818785539   2.1479387299
	    H    -1.2614401640   0.8179334158  -1.8277028366
	    H    -3.1839845997   1.8074494257  -0.7495459046
	    H     2.2363324960  -0.5900017119   0.9266210384
	    H    -0.0994265515  -0.5448782359  -2.6626356786
	    H    -1.5486545482   0.7229565638   3.0693535691
	    H     4.0312704380  -1.5843693068  -0.3653608759
	    H     1.8034648932  -1.5073720429  -3.8125845951
21
Geometry for iteration 38178960
	    C    -1.3183174058   0.7686717075  -0.7480406301
	    C    -2.4090717403   1.3436769106  -0.1476347630
	    C     2.0797837835  -0.7795327567  -0.1207749904
	    C     0.8038970900  -0.7344866432  -2.0984992834
	    C    -1.5044647685   0.7574743099   1.9918977083
	    C     3.1052329610  -1.3395317713  -0.8616670231
	    C     1.8830100773  -1.2940304716  -2.7546069136
	    C    -0.2565192660   0.1664857823  -0.0389119042
	    C     0.8590010056  -0.4364552475  -0.7260378681
	    C    -2.5813271291   1.3777862989   1.2782652254
	    C    -0.4317295828   0.2049739553   1.3511079947
	    N     3.0469835560  -1.6082071718  -2.1712622743
	    O    -3.5779332314   1.8972868439   1.8463834186
	    F     0.5131087362  -0.3836953796   2.1524194174
	    H    -1.2553758043   0.8149001260  -1.8258353525
	    H    -3.1781200635   1.8054045523  -0.7508900306
	    H     2.2391879882  -0.5948600133   0.9263543381
	    H    -0.0965291964  -0.5505885324  -2.6623853770
	    H    -1.5464861797   0.7201658429   3.0695262315
	    H     4.0367134870  -1.5864310333  -0.3675647343
	    H     1.8063331108  -1.5109991343  -3.8128338140
21
Geometry for iteration 7
	    C    -1.3181213138   0.7683360969  -0.7481654165
	    C    -2.4090815115   1.3431185732  -0.1479012394
	    C     2.0799760736  -0.7801562181  -0.1210782606
	    C     0.8041766790  -0.7344482933  -2.0989220624
	    C    -1.5043592497   0.7573743950   1.9915795134
	    C     3.1053092458  -1.3403050705  -0.8619516827
	    C     1.8833636977  -1.2940558659  -2.7550152945
	    C    -0.2561633305   0.1662803390  -0.0390176099
	    C     0.8592515872  -0.4366956351  -0.7264934845
	    C    -2.5825214109   1.3752113552   1.2779194710
	    C    -0.4311459962   0.2054749663   1.3510151544
	    N     3.0470665832  -1.6086459426  -2.1716312419
	    O    -3.5777297421   1.8972857720   1.8461682142
	    F     0.5133969040  -0.3832597395   2.1525497080
	    H    -1.2550495095   0.8145454137  -1.8259534812
	    H    -3.1775384654   1.8054784171  -0.7514320946
	    H     2.2391370398  -0.5953981132   0.9260508958
	    H    -0.0960958253  -0.5502825422  -2.6629599369
	    H    -1.5457733899   0.7209297939   3.0692846124
	    H     4.0369329946  -1.5870775895  -0.3680605886
	    H     1.8065893537  -1.5111082819  -3.8132330629
21
Geometry for iteration 7
	    C    -1.3181182697   0.7683751121  -0.7482522819
	    C    -2.4089758546   1.3432691746  -0.1479179429
	    C     2.0799810690  -0.7799732844  -0.1210756106
	    C     0.8041378508  -0.7345961507  -2.0988595909
	    C    -1.5043106005   0.7572955348   1.9915903932
	    C     3.1053722159  -1.3400471387  -0.8619584452
	    C     1.8832878281  -1.2941717613  -2.7549601453
	    C    -0.2562402711   0.1662542555  -0.0391135756
	    C     0.8592273479  -0.4367042284  -0.7264145578
	    C    -2.5818235935   1.3763704197   1.2779432042
	    C    -0.4313365043   0.2050955117   1.3509130577
	    N     3.0471260884  -1.6085551877  -2.1715958825
	    O    -3.5777320427   1.8971586423   1.8461276145
	    F     0.5133541829  -0.3836066693   2.1523358809
	    H    -1.2551111844   0.8145937106  -1.8260436687
	    H    -3.1777284384   1.8053126665  -0.7513116082
	    H     2.2392637012  -0.5952579667   0.9260536592
	    H    -0.0962116066  -0.5505642028  -2.6628215227
	    H    -1.5460280439   0.7204186661   3.0692574655
	    H     4.0369244134  -1.5868830473  -0.3679618350
	    H     1.8065621260  -1.5111822264  -3.8131824955
21
Geometry for iteration 8
	    C    -1.3180880599   0.7683983211  -0.7482780516
	    C    -2.4089456448   1.3432923836  -0.1479437125
	    C     2.0800112788  -0.7799500754  -0.1211013802
	    C     0.8041680607  -0.7345729417  -2.0988853605
	    C    -1.5042803906   0.7573187438   1.9915646235
	    C     3.1054024258  -1.3400239297  -0.8619842148
	    C     1.8833180380  -1.2941485524  -2.7549859150
	    C    -0.2562100612   0.1662774645  -0.0391393452
	    C     0.8592575577  -0.4366810194  -0.7264403275
	    C    -2.5817933837   1.3763936287   1.2779174346
	    C    -0.4313062944   0.2051187206   1.3508872881
	    N     3.0471562983  -1.6085319787  -2.1716216521
	    O    -3.5777018328   1.8971818513   1.8461018449
	    F     0.5133843928  -0.3835834604   2.1523101113
	    H    -1.2550809745   0.8146169196  -1.8260694383
	    H    -3.1776982286   1.8053358754  -0.7513373778
	    H     2.2392939111  -0.5952347577   0.9260278896
	    H    -0.0961813968  -0.5505409939  -2.6628472923
	    H    -1.5459978340   0.7204418751   3.0692316959
	    H     4.0369546233  -1.5868598383  -0.3679876047
	    H     1.8065923358  -1.5111590174  -3.8132082651
