21
Geometry for iteration 0
	    C    -1.3696080882   0.8401752391  -2.6625921351
	    C    -2.4476080882   1.4131752391  -1.9895921351
	    C    -0.3336080882   0.2451752391  -1.9425921351
	    C    -2.4906080882   1.3921752391  -0.5955921351
	    C     1.2023919118  -1.6288247609  -0.1995921351
	    C     1.2393919118   0.2461752391   1.3054078649
	    C     2.2343919118  -2.1768247609   0.5434078649
	    C     2.2693919118  -0.3858247609   1.9814078649
	    C    -0.3766080882   0.2241752391  -0.5485921351
	    C     0.7003919118  -0.3938247609   0.1944078649
	    C    -1.4546080882   0.7971752391   0.1254078649
	    N     2.7833919118  -1.5848247609   1.6284078649
	    F    -1.5106080882   0.7871752391   1.4654078649
	    H    -1.3366080882   0.8561752391  -3.7485921351
	    H    -3.2546080882   1.8761752391  -2.5505921351
	    H     0.5003919118  -0.1968247609  -2.4825921351
	    H    -3.3306080882   1.8381752391  -0.0705921351
	    H     0.8083919118  -2.1588247609  -1.0615921351
	    H     0.8733919118   1.2111752391   1.6424078649
	    H     2.6623919118  -3.1378247609   0.2764078649
	    H     2.7233919118   0.0711752391   2.8544078649
21
Geometry for iteration 30465488
	    C    -1.3881967117   0.8504741809  -2.6699189041
	    C    -2.4598033241   1.4200059769  -1.9940463848
	    C    -0.3556349184   0.2574738414  -1.9551195734
	    C    -2.4983298703   1.3977774504  -0.6072845174
	    C     1.2202615047  -1.6301395334  -0.1809308575
	    C     1.2513238643   0.2302325932   1.3095042889
	    C     2.2502683031  -2.1793409017   0.5650763779
	    C     2.2800987485  -0.4010035925   1.9893493884
	    C    -0.3801616349   0.2273601915  -0.5627082172
	    C     0.7049935779  -0.3952392203   0.1946250405
	    C    -1.4614716856   0.8049173868   0.0910434005
	    N     2.7901181442  -1.5907841680   1.6413978772
	    F    -1.5080765675   0.7865306348   1.4298171056
	    H    -1.3577458357   0.8690033303  -3.7500634352
	    H    -3.2662629460   1.8823731859  -2.5445781233
	    H     0.4769806801  -0.1812578603  -2.4865276589
	    H    -3.3273471537   1.8363125625  -0.0705147809
	    H     0.8286222644  -2.1597492328  -1.0374544550
	    H     0.8895279694   1.1904348240   1.6431588463
	    H     2.6738795252  -3.1390489372   0.2999393226
	    H     2.7291862138   0.0583473095   2.8598004224
21
Geometry for iteration 2
	    C    -1.3904076889   0.8487564916  -2.6673003114
	    C    -2.4641691895   1.4197127433  -1.9979770747
	    C    -0.3634620243   0.2593914584  -1.9466740106
	    C    -2.5080505747   1.4020207021  -0.6118823127
	    C     1.2221164464  -1.6263242192  -0.1670579980
	    C     1.2597435977   0.2220123260   1.3242910078
	    C     2.2579324102  -2.1794777275   0.5682353540
	    C     2.2954055389  -0.4078693874   1.9950012618
	    C    -0.3828473829   0.2279697465  -0.5539512171
	    C     0.7035179888  -0.3920385893   0.2070339542
	    C    -1.4706757372   0.8146085345   0.0811919857
	    N     2.7990047020  -1.5925413901   1.6381394112
	    F    -1.5303974703   0.7856071580   1.4229407591
	    H    -1.3510468331   0.8679575133  -3.7446791559
	    H    -3.2680131920   1.8808301190  -2.5497163126
	    H     0.4799374521  -0.1739827780  -2.4626830999
	    H    -3.3327897227   1.8326825133  -0.0677914184
	    H     0.8161517254  -2.1560556244  -1.0156430637
	    H     0.9036697802   1.1817369223   1.6599463071
	    H     2.6682537600  -3.1410452434   0.2930622816
	    H     2.7455128299   0.0587408817   2.8598345339
21
Geometry for iteration 0
	    C    -1.3854128283   0.8441726100  -2.6639838470
	    C    -2.4611242939   1.4197667620  -2.0021692110
	    C    -0.3628261005   0.2562677961  -1.9366539891
	    C    -2.5111391943   1.4052079658  -0.6158765507
	    C     1.2197786179  -1.6253108950  -0.1623948007
	    C     1.2639595366   0.2185480139   1.3321008058
	    C     2.2630983801  -2.1778119721   0.5636335925
	    C     2.3074402772  -0.4101237287   1.9925936184
	    C    -0.3867198818   0.2251111681  -0.5428502981
	    C     0.7000572334  -0.3924023709   0.2168313929
	    C    -1.4788185659   0.8151741262   0.0828018360
	    N     2.8127260617  -1.5911396908   1.6284803116
	    F    -1.5491647132   0.7931373488   1.4266309984
	    H    -1.3391949015   0.8615697020  -3.7411869601
	    H    -3.2611974525   1.8818628054  -2.5590039459
	    H     0.4863987669  -0.1751163022  -2.4453285239
	    H    -3.3353517664   1.8374725779  -0.0724492707
	    H     0.8051231743  -2.1554830461  -1.0067927351
	    H     0.9062544111   1.1762802380   1.6737701881
	    H     2.6735969243  -3.1365610051   0.2794355079
	    H     2.7597820761   0.0567842055   2.8559863085
21
Geometry for iteration 4
	    C    -1.3794775102   0.8427721075  -2.6625128842
	    C    -2.4585916110   1.4178337831  -2.0057245922
	    C    -0.3596051911   0.2559062459  -1.9308457154
	    C    -2.5123110361   1.4050578421  -0.6196803516
	    C     1.2175332710  -1.6244451806  -0.1615380047
	    C     1.2690475100   0.2179767838   1.3350357604
	    C     2.2658219750  -2.1765517564   0.5574348254
	    C     2.3148920049  -0.4121284189   1.9903483291
	    C    -0.3872156696   0.2264099638  -0.5362964634
	    C     0.6996898733  -0.3913482054   0.2215845813
	    C    -1.4812351809   0.8178235877   0.0839169867
	    N     2.8197525607  -1.5920825899   1.6216878487
	    F    -1.5612689168   0.7959820031   1.4282490701
	    H    -1.3295776674   0.8574372223  -3.7397767293
	    H    -3.2575527742   1.8778599415  -2.5661086561
	    H     0.4911195864  -0.1764875208  -2.4363386874
	    H    -3.3382686049   1.8365932457  -0.0779449305
	    H     0.7978252239  -2.1545166421  -1.0035499230
	    H     0.9116399881   1.1748710368   1.6804857333
	    H     2.6739475117  -3.1356303258   0.2706938361
	    H     2.7714223207   0.0543399531   2.8519043313
21
Geometry for iteration 0
	    C    -1.3778409330   0.8416411341  -2.6623836555
	    C    -2.4572508652   1.4174087159  -2.0065252771
	    C    -0.3585269411   0.2552601508  -1.9297559295
	    C    -2.5121991022   1.4040120284  -0.6207668002
	    C     1.2180594562  -1.6251979758  -0.1614106540
	    C     1.2708292060   0.2169973841   1.3352330111
	    C     2.2659031840  -2.1779232930   0.5573651056
	    C     2.3181784569  -0.4122053314   1.9887887236
	    C    -0.3872687063   0.2256355949  -0.5351199344
	    C     0.7003498122  -0.3922331755   0.2223757421
	    C    -1.4822308994   0.8160863217   0.0837917095
	    N     2.8221504185  -1.5924541415   1.6199487116
	    F    -1.5631404048   0.7963603351   1.4279618385
	    H    -1.3265289113   0.8566827792  -3.7395066911
	    H    -3.2553580742   1.8779802089  -2.5674605277
	    H     0.4925962136  -0.1766898405  -2.4346840922
	    H    -3.3383290760   1.8358821585  -0.0796399241
	    H     0.7983928315  -2.1549169344  -1.0034995090
	    H     0.9132634119   1.1735226160   1.6812236571
	    H     2.6750113422  -3.1362376409   0.2695089490
	    H     2.7752451202   0.0538525653   2.8502633333
21
Geometry for iteration 6
	    C    -1.3774356217   0.8416598614  -2.6624371318
	    C    -2.4568455539   1.4174274432  -2.0065787534
	    C    -0.3581216297   0.2552788780  -1.9298094057
	    C    -2.5117937908   1.4040307556  -0.6208202765
	    C     1.2184647676  -1.6251792485  -0.1614641303
	    C     1.2712345173   0.2170161114   1.3351795348
	    C     2.2663084953  -2.1779045658   0.5573116293
	    C     2.3185837682  -0.4121866041   1.9887352473
	    C    -0.3868633949   0.2256543222  -0.5351734107
	    C     0.7007551236  -0.3922144482   0.2223222658
	    C    -1.4818255880   0.8161050490   0.0837382332
	    N     2.8225557298  -1.5924354142   1.6198952353
	    F    -1.5627350934   0.7963790624   1.4279083622
	    H    -1.3261235999   0.8567015064  -3.7395601674
	    H    -3.2549527629   1.8779989362  -2.5675140039
	    H     0.4930015249  -0.1766711132  -2.4347375684
	    H    -3.3379237646   1.8359008858  -0.0796934004
	    H     0.7987981429  -2.1548982071  -1.0035529852
	    H     0.9136687232   1.1735413433   1.6811701809
	    H     2.6754166536  -3.1362189137   0.2694554727
	    H     2.7756504315   0.0538712925   2.8502098571
