22
Geometry for iteration 0
	    C    -1.3213254137   0.7555885464  -0.7995056215
	    C    -2.3993254137   1.3285885464  -0.1265056215
	    C     1.3116745863  -1.6814114536  -0.4025056215
	    C     1.4276745863   0.2415885464  -1.8415056215
	    C    -1.4063254137   0.7125885464   1.9884943785
	    C     2.3816745863  -2.2074114536  -1.1085056215
	    C     2.4926745863  -0.3694114536  -2.4825056215
	    C    -0.2853254137   0.1605885464  -0.0795056215
	    C     0.8316745863  -0.4334114536  -0.7825056215
	    C    -2.4423254137   1.3075885464   1.2674943785
	    C    -0.3283254137   0.1395885464   1.3144943785
	    N     2.9866745863  -1.5814114536  -2.1425056215
	    O    -3.4953254137   1.8675885464   1.9244943785
	    F     0.6596745863  -0.4284114536   2.0214943785
	    H    -1.3023254137   0.7795885464  -1.8865056215
	    H    -3.2043254137   1.7895885464  -0.6935056215
	    H     0.8716745863  -2.2394114536   0.4184943785
	    H     1.0806745863   1.2175885464  -2.1655056215
	    H    -1.4343254137   0.6925885464   3.0744943785
	    H     2.7916745863  -3.1784114536  -0.8525056215
	    H     2.9936745863   0.1155885464  -3.3135056215
	    H    -3.3813254137   1.7735885464   2.8834943785
22
Geometry for iteration 0
	    C    -1.3213254137   0.7555885464  -0.7995056215
	    C    -2.3993254137   1.3285885464  -0.1265056215
	    C     1.3116745863  -1.6814114536  -0.4025056215
	    C     1.4276745863   0.2415885464  -1.8415056215
	    C    -1.4063254137   0.7125885464   1.9884943785
	    C     2.3816745863  -2.2074114536  -1.1085056215
	    C     2.4926745863  -0.3694114536  -2.4825056215
	    C    -0.2853254137   0.1605885464  -0.0795056215
	    C     0.8316745863  -0.4334114536  -0.7825056215
	    C    -2.4423254137   1.3075885464   1.2674943785
	    C    -0.3283254137   0.1395885464   1.3144943785
	    N     2.9866745863  -1.5814114536  -2.1425056215
	    O    -3.4953254137   1.8675885464   1.9244943785
	    F     0.6596745863  -0.4284114536   2.0214943785
	    H    -1.3023254137   0.7795885464  -1.8865056215
	    H    -3.2043254137   1.7895885464  -0.6935056215
	    H     0.8716745863  -2.2394114536   0.4184943785
	    H     1.0806745863   1.2175885464  -2.1655056215
	    H    -1.4343254137   0.6925885464   3.0744943785
	    H     2.7916745863  -3.1784114536  -0.8525056215
	    H     2.9936745863   0.1155885464  -3.3135056215
	    H    -3.3813254137   1.7735885464   2.8834943785
22
Geometry for iteration 926364724
	    C    -1.3304747456   0.7586087415  -0.7629788382
	    C    -2.4099446144   1.3323260583  -0.1055150494
	    C     1.3472457647  -1.6915302691  -0.4217856396
	    C     1.4468719242   0.2211477041  -1.8355541708
	    C    -1.4231035407   0.7239532563   2.0000672380
	    C     2.4068424272  -2.2160475037  -1.1447782935
	    C     2.5037615686  -0.3838916170  -2.4962322634
	    C    -0.2872047118   0.1528634421  -0.0654133522
	    C     0.8460027845  -0.4420399306  -0.7717177702
	    C    -2.4541519264   1.3173747575   1.2801534475
	    C    -0.3634623905   0.1456024168   1.3227460475
	    N     2.9971439078  -1.5882042164  -2.1726253562
	    O    -3.5206248308   1.8910894306   1.8998196845
	    F     0.6312212417  -0.3957239445   2.0389767423
	    H    -1.3121494041   0.7641626662  -1.8435900350
	    H    -3.2159375540   1.7856003742  -0.6652624861
	    H     0.9105116737  -2.2602236847   0.3849952552
	    H     1.1094770474   1.2026963058  -2.1370660936
	    H    -1.4372718020   0.7127620764   3.0819734662
	    H     2.8094811711  -3.1911103095  -0.9037417233
	    H     2.9964477274   0.1132166296  -3.3217230904
	    H    -3.4218408191   1.8103156363   2.8551286082
22
Geometry for iteration 2
	    C    -1.2884108240   0.8109329957  -0.7400462083
	    C    -2.3770292945   1.3718525042  -0.0965604915
	    C     1.3806727748  -1.6680338173  -0.4029187896
	    C     1.4597628716   0.2047390866  -1.8546974731
	    C    -1.4399923291   0.7064076802   2.0107975406
	    C     2.4113962721  -2.2209839855  -1.1461663099
	    C     2.4816787036  -0.4303763910  -2.5434560111
	    C    -0.2468703298   0.1972543790  -0.0474366051
	    C     0.8808464098  -0.4176820610  -0.7522800030
	    C    -2.4575401189   1.3098365407   1.2857480637
	    C    -0.3600386564   0.1773298492   1.3362999239
	    N     2.9641184744  -1.6293205000  -2.2098782978
	    O    -3.5617109097   1.8430663624   1.8763587809
	    F     0.6077819299  -0.4003701001   2.0667692239
	    H    -1.2444950877   0.8358796730  -1.8177948481
	    H    -3.1729393073   1.8367802923  -0.6542327868
	    H     0.9776930901  -2.2021807415   0.4434112227
	    H     1.1134997695   1.1748836104  -2.1766419660
	    H    -1.4758121434   0.6454844159   3.0890311463
	    H     2.8172944510  -3.1864421996  -0.8786003060
	    H     2.9272589751   0.0333507020  -3.4151674498
	    H    -3.5060008017   1.7175805516   2.8293759104
22
Geometry for iteration 3
	    C    -1.3184284960   0.7486593330  -0.7490388790
	    C    -2.3979332299   1.3246752282  -0.1067569519
	    C     1.3760301640  -1.7035376713  -0.4288351745
	    C     1.4423503839   0.2036029818  -1.8394052235
	    C    -1.4379259004   0.7120763421   2.0086452777
	    C     2.4290209874  -2.2200549735  -1.1675864460
	    C     2.4935162920  -0.3922361494  -2.5194221846
	    C    -0.2755559472   0.1382726275  -0.0533733243
	    C     0.8588560471  -0.4545546967  -0.7597374399
	    C    -2.4550536481   1.3121485037   1.2811689500
	    C    -0.3862199427   0.1313177093   1.3304586491
	    N     2.9953920796  -1.5864326779  -2.1998559162
	    O    -3.5235388520   1.9175024160   1.8727443810
	    F     0.5971629829  -0.4165606288   2.0696156623
	    H    -1.2793482181   0.7557551582  -1.8283246067
	    H    -3.1937075946   1.7908833482  -0.6632708926
	    H     0.9599198889  -2.2699625612   0.3911355302
	    H     1.1003947649   1.1865923870  -2.1291133306
	    H    -1.4440480275   0.6969855740   3.0896894424
	    H     2.8369700669  -3.1899285542  -0.9198543074
	    H     2.9707531536   0.1228174265  -3.3466973416
	    H    -3.4390996996   1.8536582703   2.8321404516
22
Geometry for iteration 4
	    C    -1.3006918216   0.7765322910  -0.7458529544
	    C    -2.3845884667   1.3452530604  -0.1039742039
	    C     1.3826879424  -1.6852748048  -0.4167772384
	    C     1.4561885633   0.2123251660  -1.8391657929
	    C    -1.4313472914   0.7207176970   2.0097376424
	    C     2.4228413530  -2.2180239335  -1.1612872139
	    C     2.4945781294  -0.3994506120  -2.5232910877
	    C    -0.2579396196   0.1657560068  -0.0491318973
	    C     0.8722049929  -0.4356101829  -0.7547839916
	    C    -2.4491905737   1.3193801658   1.2821080392
	    C    -0.3693722578   0.1566936532   1.3341448159
	    N     2.9835244462  -1.5995016179  -2.2042840390
	    O    -3.5366202440   1.8888289990   1.8710675513
	    F     0.6117176794  -0.3951689858   2.0725829268
	    H    -1.2658668615   0.7764896832  -1.8250666778
	    H    -3.1887781993   1.7972364017  -0.6611583872
	    H     0.9634052617  -2.2452219808   0.4042166078
	    H     1.1163315778   1.1931897072  -2.1367051846
	    H    -1.4468224709   0.6889018603   3.0890302618
	    H     2.8176554952  -3.1941755787  -0.9171262590
	    H     2.9567046208   0.0964192702  -3.3673163121
	    H    -3.4644104568   1.8011115224   2.8273743813
22
Geometry for iteration 5
	    C    -1.3095188202   0.7680013844  -0.7493259601
	    C    -2.3904573449   1.3395092853  -0.1046846745
	    C     1.3739285578  -1.6929486854  -0.4224224936
	    C     1.4491884875   0.2071288301  -1.8418819215
	    C    -1.4333486701   0.7143279868   2.0065228234
	    C     2.4188785300  -2.2220020166  -1.1622834174
	    C     2.4912978239  -0.4020532381  -2.5217307937
	    C    -0.2652139881   0.1571272206  -0.0534679635
	    C     0.8636893521  -0.4433267157  -0.7605169364
	    C    -2.4523032229   1.3137369990   1.2810635367
	    C    -0.3728690810   0.1487670500   1.3296522249
	    N     2.9847893689  -1.5996798022  -2.1993032147
	    O    -3.5334045002   1.8894836830   1.8720112892
	    F     0.6089729430  -0.4051794398   2.0657912562
	    H    -1.2732591066   0.7747564246  -1.8284446958
	    H    -3.1916445645   1.8006374200  -0.6595536637
	    H     0.9583963061  -2.2509072795   0.4009051118
	    H     1.1074980464   1.1870093514  -2.1398954445
	    H    -1.4443887355   0.6840495377   3.0851015614
	    H     2.8269089426  -3.1899263768  -0.9067951078
	    H     2.9589521250   0.0984252578  -3.3576092070
	    H    -3.4559122933   1.8048934611   2.8267369753
22
Geometry for iteration 6
	    C    -1.3040166451   0.7732768582  -0.7471875673
	    C    -2.3870991786   1.3420939858  -0.1039600784
	    C     1.3787011374  -1.6876640085  -0.4173519795
	    C     1.4518526173   0.2092988194  -1.8411128528
	    C    -1.4343817436   0.7146823929   2.0085124694
	    C     2.4219726511  -2.2185456643  -1.1584385318
	    C     2.4900939387  -0.4030739086  -2.5242455734
	    C    -0.2605177707   0.1623452381  -0.0500424137
	    C     0.8691609025  -0.4379527326  -0.7560114531
	    C    -2.4529311975   1.3131177341   1.2817979251
	    C    -0.3711805676   0.1526917228   1.3327808120
	    N     2.9820101659  -1.6011906465  -2.2016258667
	    O    -3.5359160537   1.8865661261   1.8710690850
	    F     0.6090414364  -0.4024432762   2.0704839895
	    H    -1.2645275481   0.7826477929  -1.8261530754
	    H    -3.1870434854   1.8041589563  -0.6596150052
	    H     0.9637566661  -2.2442046424   0.4074655011
	    H     1.1091936631   1.1882730240  -2.1409995769
	    H    -1.4474787073   0.6817342831   3.0871230132
	    H     2.8214738546  -3.1916602056  -0.9094236325
	    H     2.9518512113   0.0928692565  -3.3663062405
	    H    -3.4609348758   1.7998119907   2.8259478396
22
Geometry for iteration 7
	    C    -1.3042931756   0.7736092472  -0.7479269687
	    C    -2.3870442192   1.3425832026  -0.1044845114
	    C     1.3777544932  -1.6880714167  -0.4185122138
	    C     1.4518811798   0.2088450909  -1.8423129776
	    C    -1.4343234947   0.7151534844   2.0079668330
	    C     2.4200062781  -2.2199276109  -1.1604776997
	    C     2.4908399132  -0.4032850068  -2.5247147816
	    C    -0.2606621503   0.1625256273  -0.0510007173
	    C     0.8686008685  -0.4382186623  -0.7572355973
	    C    -2.4524829566   1.3144734310   1.2815193137
	    C    -0.3717039380   0.1525482762   1.3317522443
	    N     2.9816178274  -1.6018821711  -2.2024041875
	    O    -3.5363484601   1.8861868670   1.8708073640
	    F     0.6085133960  -0.4027164725   2.0696245021
	    H    -1.2664848245   0.7798436604  -1.8269764071
	    H    -3.1888111354   1.8015347243  -0.6599844238
	    H     0.9623743004  -2.2444566972   0.4063568389
	    H     1.1104194222   1.1885002894  -2.1414363320
	    H    -1.4471593416   0.6812702371   3.0866703913
	    H     2.8212897385  -3.1915780943  -0.9089522749
	    H     2.9533379870   0.0930161988  -3.3663785491
	    H    -3.4618916047   1.7984867941   2.8258336905
22
Geometry for iteration 8
	    C    -1.3046632425   0.7729653198  -0.7478601704
	    C    -2.3872032144   1.3421422281  -0.1043304464
	    C     1.3777647340  -1.6884896703  -0.4184167627
	    C     1.4520572565   0.2086722069  -1.8419216977
	    C    -1.4342348172   0.7152300643   2.0081052219
	    C     2.4200795201  -2.2202640748  -1.1604456782
	    C     2.4909657444  -0.4034279338  -2.5244641503
	    C    -0.2608918621   0.1619826834  -0.0509748275
	    C     0.8682538637  -0.4388197589  -0.7573642500
	    C    -2.4525653115   1.3143856346   1.2817513586
	    C    -0.3715352766   0.1527732053   1.3317949219
	    N     2.9819392725  -1.6019340311  -2.2020655885
	    O    -3.5364025083   1.8859884410   1.8710615354
	    F     0.6089278048  -0.4019670525   2.0698120785
	    H    -1.2670207382   0.7789610578  -1.8269070107
	    H    -3.1890492762   1.8010366825  -0.6597738536
	    H     0.9615715147  -2.2454740493   0.4056914958
	    H     1.1104620705   1.1883061574  -2.1410342345
	    H    -1.4466429248   0.6815193454   3.0868843861
	    H     2.8209325319  -3.1921683553  -0.9093233104
	    H     2.9542393170   0.0934684234  -3.3654464469
	    H    -3.4619132735   1.7984701334   2.8261822742
22
Geometry for iteration 9
	    C    -1.3047031781   0.7728887079  -0.7478678101
	    C    -2.3872431500   1.3420656162  -0.1043380862
	    C     1.3777247983  -1.6885662822  -0.4184244025
	    C     1.4520173209   0.2085955950  -1.8419293374
	    C    -1.4342747528   0.7151534524   2.0080975822
	    C     2.4200395845  -2.2203406867  -1.1604533179
	    C     2.4909258088  -0.4035045457  -2.5244717900
	    C    -0.2609317978   0.1619060715  -0.0509824672
	    C     0.8682139281  -0.4388963708  -0.7573718897
	    C    -2.4526052471   1.3143090227   1.2817437189
	    C    -0.3715752122   0.1526965934   1.3317872821
	    N     2.9818993369  -1.6020106430  -2.2020732283
	    O    -3.5364424439   1.8859118291   1.8710538956
	    F     0.6088878691  -0.4020436644   2.0698044388
	    H    -1.2670606738   0.7788844460  -1.8269146504
	    H    -3.1890892118   1.8009600707  -0.6597814933
	    H     0.9615315790  -2.2455506612   0.4056838561
	    H     1.1104221349   1.1882295455  -2.1410418743
	    H    -1.4466828604   0.6814427335   3.0868767463
	    H     2.8208925963  -3.1922449672  -0.9093309501
	    H     2.9541993813   0.0933918115  -3.3654540867
	    H    -3.4619532091   1.7983935215   2.8261746345
