21
Geometry for iteration 0
	    C    -1.3458601125   0.7670552444  -0.7815747010
	    C    -2.4238601125   1.3400552444  -0.1085747010
	    C     1.4051398875   0.2550552444  -1.8225747010
	    C     1.2881398875  -1.6689447556  -0.3835747010
	    C    -1.4308601125   0.7240552444   2.0064252990
	    C     2.4721398875  -0.3559447556  -2.4615747010
	    C     2.3601398875  -2.1929447556  -1.0875747010
	    C    -0.3098601125   0.1720552444  -0.0615747010
	    C     0.8071398875  -0.4209447556  -0.7645747010
	    C    -2.4668601125   1.3190552444   1.2854252990
	    C    -0.3528601125   0.1510552444   1.3324252990
	    N     2.9661398875  -1.5659447556  -2.1205747010
	    O    -3.4578601125   1.8460552444   1.9044252990
	    F     0.6351398875  -0.4169447556   2.0394252990
	    H    -1.3268601125   0.7900552444  -1.8695747010
	    H    -3.2198601125   1.7960552444  -0.6945747010
	    H     1.0581398875   1.2310552444  -2.1475747010
	    H     0.8461398875  -2.2259447556   0.4364252990
	    H    -1.4398601125   0.6940552444   3.0944252990
	    H     2.9741398875   0.1310552444  -3.2915747010
	    H     2.7711398875  -3.1639447556  -0.8305747010
21
Geometry for iteration 1
	    C    -1.3597427106   0.7774286822  -0.7722611806
	    C    -2.4355493080   1.3480491310  -0.1037234190
	    C     1.4200621867   0.2395813183  -1.8296627923
	    C     1.3031657656  -1.6687197813  -0.3939094000
	    C    -1.4375224984   0.7246874726   2.0104227299
	    C     2.4884692947  -0.3722340604  -2.4659738462
	    C     2.3770374645  -2.1931546289  -1.0949781899
	    C    -0.3149785533   0.1755212976  -0.0654664598
	    C     0.8079351891  -0.4214331990  -0.7674441704
	    C    -2.4976274304   1.3348154874   1.3065421648
	    C    -0.3737207507   0.1590100432   1.3267239529
	    N     2.9827566578  -1.5743023783  -2.1242405226
	    O    -3.4851925354   1.8591822315   1.9307951682
	    F     0.6251328065  -0.4164042161   2.0265224230
	    H    -1.3384437083   0.8001788525  -1.8568997211
	    H    -3.2295281569   1.8033243903  -0.6841190688
	    H     1.0758021467   1.2118214463  -2.1571696716
	    H     0.8635812224  -2.2239183347   0.4230083243
	    H    -1.4390807176   0.6893830136   3.0933305380
	    H     2.9897675144   0.1144224780  -3.2949031618
	    H     2.7866137589  -3.1620791136  -0.8336624178
21
Geometry for iteration 0
	    C    -1.3562934200   0.7760932676  -0.7727342437
	    C    -2.4321000174   1.3467137164  -0.1041964822
	    C     1.4235114773   0.2382459037  -1.8301358555
	    C     1.3066150561  -1.6700551959  -0.3943824632
	    C    -1.4340732078   0.7233520580   2.0099496668
	    C     2.4919185852  -0.3735694749  -2.4664469094
	    C     2.3804867551  -2.1944900435  -1.0954512531
	    C    -0.3115292628   0.1741858831  -0.0659395230
	    C     0.8113844797  -0.4227686136  -0.7679172336
	    C    -2.4941781398   1.3334800729   1.3060691017
	    C    -0.3702714601   0.1576746286   1.3262508897
	    N     2.9862059484  -1.5756377929  -2.1247135858
	    O    -3.4817432448   1.8578468169   1.9303221050
	    F     0.6285820971  -0.4177396307   2.0260493598
	    H    -1.3349944178   0.7988434380  -1.8573727843
	    H    -3.2260788664   1.8019889757  -0.6845921320
	    H     1.0792514372   1.2104860317  -2.1576427348
	    H     0.8670305130  -2.2252537493   0.4225352612
	    H    -1.4356314270   0.6880475990   3.0928574748
	    H     2.9932168049   0.1130870634  -3.2953762250
	    H     2.7900630494  -3.1634145281  -0.8341354810
21
Geometry for iteration 0
	    C    -1.3458601125   0.7670552444  -0.7815747010
	    C    -2.4238601125   1.3400552444  -0.1085747010
	    C     1.4051398875   0.2550552444  -1.8225747010
	    C     1.2881398875  -1.6689447556  -0.3835747010
	    C    -1.4308601125   0.7240552444   2.0064252990
	    C     2.4721398875  -0.3559447556  -2.4615747010
	    C     2.3601398875  -2.1929447556  -1.0875747010
	    C    -0.3098601125   0.1720552444  -0.0615747010
	    C     0.8071398875  -0.4209447556  -0.7645747010
	    C    -2.4668601125   1.3190552444   1.2854252990
	    C    -0.3528601125   0.1510552444   1.3324252990
	    N     2.9661398875  -1.5659447556  -2.1205747010
	    O    -3.4578601125   1.8460552444   1.9044252990
	    F     0.6351398875  -0.4169447556   2.0394252990
	    H    -1.3268601125   0.7900552444  -1.8695747010
	    H    -3.2198601125   1.7960552444  -0.6945747010
	    H     1.0581398875   1.2310552444  -2.1475747010
	    H     0.8461398875  -2.2259447556   0.4364252990
	    H    -1.4398601125   0.6940552444   3.0944252990
	    H     2.9741398875   0.1310552444  -3.2915747010
	    H     2.7711398875  -3.1639447556  -0.8305747010
21
Geometry for iteration 1
	    C    -1.3594317826   0.7780584033  -0.7713733318
	    C    -2.4354797640   1.3484280580  -0.1020571041
	    C     1.4204900194   0.2387501313  -1.8303123780
	    C     1.3042291452  -1.6685355670  -0.3942409237
	    C    -1.4390252923   0.7250202263   2.0101030326
	    C     2.4887717938  -0.3726955320  -2.4671350178
	    C     2.3780470266  -2.1935161487  -1.0949507597
	    C    -0.3142688189   0.1754347590  -0.0660254562
	    C     0.8081347299  -0.4215934964  -0.7677528198
	    C    -2.4978086618   1.3349237341   1.3067204001
	    C    -0.3744342758   0.1586524363   1.3263983378
	    N     2.9837612868  -1.5749571579  -2.1250670948
	    O    -3.4856644433   1.8593060712   1.9306187880
	    F     0.6232737208  -0.4164227826   2.0269846493
	    H    -1.3385865956   0.8012006960  -1.8561893183
	    H    -3.2299615736   1.8039828674  -0.6820492371
	    H     1.0761529985   1.2111837932  -2.1577645528
	    H     0.8646479422  -2.2236262235   0.4230511480
	    H    -1.4411444383   0.6897713734   3.0932550735
	    H     2.9897305563   0.1142585558  -3.2962415687
	    H     2.7875040640  -3.1624640651  -0.8330405871
21
Geometry for iteration 2
	    C    -1.3640118497   0.7862723063  -0.7620410026
	    C    -2.4364417479   1.3538909400  -0.0982162036
	    C     1.4341822815   0.2229375215  -1.8365992249
	    C     1.3227932278  -1.6696843938  -0.4022976228
	    C    -1.4422747618   0.7232667519   2.0105685057
	    C     2.5024510616  -0.3870387203  -2.4735978098
	    C     2.3970163760  -2.1946429097  -1.1011320914
	    C    -0.3113506192   0.1755593710  -0.0701829539
	    C     0.8113892796  -0.4242281486  -0.7691860367
	    C    -2.5209887384   1.3484177375   1.3237150063
	    C    -0.3919268971   0.1633815365   1.3205040333
	    N     2.9997039269  -1.5823556153  -2.1303276846
	    O    -3.5017503258   1.8688392976   1.9472659293
	    F     0.6143984563  -0.4202122999   2.0198548667
	    H    -1.3401216223   0.8094265858  -1.8446993191
	    H    -3.2301902658   1.8105189354  -0.6723977990
	    H     1.0900088628   1.1927355249  -2.1650988279
	    H     0.8868068110  -2.2231964992   0.4142219504
	    H    -1.4407514737   0.6836161987   3.0899891924
	    H     2.9986959821   0.1026645876  -3.3026307460
	    H     2.8047204170  -3.1615051252  -0.8330499912
21
Geometry for iteration 3
	    C    -1.3595676063   0.7960859120  -0.7519157285
	    C    -2.4312450678   1.3600115398  -0.0947296757
	    C     1.4422776061   0.2089156958  -1.8424601863
	    C     1.3428795531  -1.6702486062  -0.4067402233
	    C    -1.4497798211   0.7212828081   2.0104150945
	    C     2.5071885912  -0.3991346728  -2.4855520183
	    C     2.4151440660  -2.1955535425  -1.1070281128
	    C    -0.3019446122   0.1768202092  -0.0708349431
	    C     0.8145568821  -0.4283049140  -0.7695987634
	    C    -2.5399263323   1.3609416933   1.3354166083
	    C    -0.4089910463   0.1636775447   1.3186052330
	    N     3.0102037298  -1.5891030458  -2.1412048055
	    O    -3.5156756109   1.8776769326   1.9542142641
	    F     0.5994953141  -0.4268399707   2.0250780337
	    H    -1.3311549097   0.8178696979  -1.8337802725
	    H    -3.2263790360   1.8177420722  -0.6639174086
	    H     1.0972931374   1.1786528242  -2.1679230368
	    H     0.9128608266  -2.2216106523   0.4128059753
	    H    -1.4512230183   0.6790560566   3.0880855106
	    H     2.9946729513   0.0956902855  -3.3160775501
	    H     2.8219161029  -3.1601980049  -0.8318143593
21
Geometry for iteration 4
	    C    -1.3421671130   0.8096321116  -0.7445010842
	    C    -2.4197762370   1.3666415517  -0.0956056297
	    C     1.4427331296   0.2018790647  -1.8468512464
	    C     1.3609345519  -1.6673101624  -0.4032289931
	    C    -1.4597860922   0.7156906365   2.0113628799
	    C     2.4984367086  -0.4083232770  -2.5022408940
	    C     2.4265882210  -2.1949212785  -1.1112293362
	    C    -0.2853025210   0.1844979009  -0.0640263533
	    C     0.8193824308  -0.4301573677  -0.7670645426
	    C    -2.5477751837   1.3651844337   1.3359194793
	    C    -0.4185633491   0.1573169386   1.3244975071
	    N     3.0082489281  -1.5955673952  -2.1574998114
	    O    -3.5251182908   1.8786910312   1.9470665415
	    F     0.5844608683  -0.4344732412   2.0457546006
	    H    -1.3080022656   0.8290272670  -1.8267062748
	    H    -3.2162493654   1.8227660284  -0.6653788977
	    H     1.0992527964   1.1748097356  -2.1657137574
	    H     0.9403756533  -2.2151474105   0.4240915779
	    H    -1.4701900904   0.6713905823   3.0892035003
	    H     2.9746710677   0.0882088810  -3.3382302746
	    H     2.8353963219  -3.1571431358  -0.8308115643
21
Geometry for iteration 5
	    C    -1.3193647916   0.8296015627  -0.7383252470
	    C    -2.4064325476   1.3759760158  -0.0979206481
	    C     1.4412369744   0.1984415413  -1.8540896724
	    C     1.3774560305  -1.6568188008  -0.3933824621
	    C    -1.4731468799   0.7020137787   2.0121284182
	    C     2.4847948158  -0.4194006410  -2.5211098092
	    C     2.4309668960  -2.1929334161  -1.1129109047
	    C    -0.2634244922   0.2035744177  -0.0539864338
	    C     0.8276923741  -0.4242079033  -0.7620658155
	    C    -2.5541790735   1.3587831983   1.3318888862
	    C    -0.4203582543   0.1561147601   1.3325637421
	    N     2.9975667939  -1.6058170241  -2.1751313837
	    O    -3.5379219220   1.8658492540   1.9358820743
	    F     0.5716907543  -0.4413606201   2.0677002967
	    H    -1.2763426638   0.8525292321  -1.8205852375
	    H    -3.2008839221   1.8333436534  -0.6707787758
	    H     1.0988790586   1.1723679372  -2.1722934785
	    H     0.9697509041  -2.1960712441   0.4467762745
	    H    -1.4965282732   0.6478321422   3.0898615362
	    H     2.9456606775   0.0694993757  -3.3703773285
	    H     2.8438986055  -3.1511783272  -0.8247365734
21
Geometry for iteration 6
	    C    -1.3051356713   0.8408729192  -0.7348698114
	    C    -2.4000900754   1.3774098961  -0.1003786408
	    C     1.4417557223   0.1987661929  -1.8573943350
	    C     1.3850952996  -1.6503884993  -0.3889015163
	    C    -1.4775031522   0.6991129592   2.0124503790
	    C     2.4765383272  -0.4252537048  -2.5315586122
	    C     2.4306180355  -2.1921215321  -1.1156163558
	    C    -0.2489081662   0.2174471909  -0.0464623967
	    C     0.8350980654  -0.4176036679  -0.7572100544
	    C    -2.5555955471   1.3546666085   1.3277646604
	    C    -0.4179168961   0.1592917708   1.3381399329
	    N     2.9900753106  -1.6116837414  -2.1852452282
	    O    -3.5471689427   1.8523480005   1.9271309682
	    F     0.5716635536  -0.4327198891   2.0813459594
	    H    -1.2557605006   0.8675349569  -1.8167893280
	    H    -3.1959620638   1.8281405104  -0.6768380480
	    H     1.1026824430   1.1741662162  -2.1747596325
	    H     0.9815485169  -2.1875569633   0.4545962678
	    H    -1.5064820566   0.6415819563   3.0899094888
	    H     2.9371470339   0.0635745374  -3.3808723981
	    H     2.8384332499  -3.1536055820  -0.8307945621
21
Geometry for iteration 7
	    C    -1.3057943518   0.8424188351  -0.7357388767
	    C    -2.3992491725   1.3800923503  -0.1002256665
	    C     1.4427924742   0.1982036461  -1.8591247613
	    C     1.3849346363  -1.6498166212  -0.3899048511
	    C    -1.4778850327   0.6952418218   2.0108209263
	    C     2.4797066881  -0.4250459499  -2.5302960431
	    C     2.4304620676  -2.1923440847  -1.1158578114
	    C    -0.2490862942   0.2178554388  -0.0485853452
	    C     0.8335168205  -0.4182826639  -0.7603403399
	    C    -2.5573446287   1.3502298473   1.3275826483
	    C    -0.4180427369   0.1579704279   1.3354436790
	    N     2.9916102774  -1.6122251404  -2.1843498298
	    O    -3.5456934663   1.8524355627   1.9284124682
	    F     0.5709756283  -0.4372668624   2.0767420275
	    H    -1.2568162410   0.8704560729  -1.8174657623
	    H    -3.1913715103   1.8383990114  -0.6755559784
	    H     1.1024825671   1.1720912715  -2.1794122411
	    H     0.9857072154  -2.1833727355   0.4577065756
	    H    -1.5058997479   0.6359978913   3.0879851933
	    H     2.9334989268   0.0580970141  -3.3864401462
	    H     2.8452261608  -3.1485929330  -0.8234562470
21
Geometry for iteration 875902513
	    C    -1.3051446067   0.8416134023  -0.7356784396
	    C    -2.3993516430   1.3787199082  -0.1006788142
	    C     1.4425985852   0.1984521890  -1.8586344158
	    C     1.3853383505  -1.6501369097  -0.3897773923
	    C    -1.4773690375   0.6971427214   2.0112678103
	    C     2.4784489973  -0.4251875798  -2.5312988856
	    C     2.4308639251  -2.1922652745  -1.1161130575
	    C    -0.2486756411   0.2176193710  -0.0478969202
	    C     0.8346295209  -0.4179753642  -0.7591486201
	    C    -2.5561460949   1.3524138189   1.3273074863
	    C    -0.4176554605   0.1585978563   1.3364197089
	    N     2.9911723603  -1.6119920877  -2.1851738327
	    O    -3.5461144677   1.8523620858   1.9274033996
	    F     0.5716465550  -0.4350277050   2.0786723782
	    H    -1.2559674571   0.8689621681  -1.8175021139
	    H    -3.1933581594   1.8332436829  -0.6765882734
	    H     1.1029049245   1.1730982013  -2.1774615940
	    H     0.9839502778  -2.1855088904   0.4557849802
	    H    -1.5058642124   0.6387539552   3.0885803780
	    H     2.9356581225   0.0608158924  -3.3840497759
	    H     2.8421654418  -3.1511592412  -0.8274943881
21
Geometry for iteration 0
	    C    -1.3044881572   0.8408044461  -0.7356177694
	    C    -2.3994425614   1.3773414230  -0.1011265989
	    C     1.4424032363   0.1986977198  -1.8581422931
	    C     1.3857428137  -1.6504569724  -0.3896494743
	    C    -1.4768556382   0.6990444861   2.0117024210
	    C     2.4771858413  -0.4253221779  -2.5323065702
	    C     2.4312655495  -2.1921900052  -1.1163643138
	    C    -0.2482606522   0.2173787178  -0.0472103548
	    C     0.8357455794  -0.4176721410  -0.7579580125
	    C    -2.5549480330   1.3545981354   1.3270167023
	    C    -0.4172693821   0.1592232977   1.3373919749
	    N     2.9907228246  -1.6117522145  -2.1859931862
	    O    -3.5465214286   1.8522795274   1.9263830102
	    F     0.5723110676  -0.4327883622   2.0805980014
	    H    -1.2551129865   0.8674664838  -1.8175372861
	    H    -3.1953145498   1.8280720373  -0.6775860060
	    H     1.1033299571   1.1740977431  -2.1755075906
	    H     0.9821960309  -2.1876254364   0.4538483098
	    H    -1.5058345426   0.6415134832   3.0891615308
	    H     2.9377945479   0.0635060643  -3.3816203561
	    H     2.8390807639  -3.1536740551  -0.8315425201
