21
Geometry for iteration 0
	    C     0.1091435842   0.0535268045  -3.5259653461
	    C    -0.9688564158   0.6265268045  -2.8529653461
	    C     1.1451435842  -0.5414731955  -2.8059653461
	    C    -1.0118564158   0.6055268045  -1.4589653461
	    C     1.1021435842  -0.5624731955  -1.4119653461
	    C     0.5381435842   1.0305268045   1.4390346539
	    C    -0.6248564158  -1.0734731955   1.3710346539
	    C     0.4671435842   0.9635268045   2.8220346539
	    C    -0.6428564158  -1.0464731955   2.7560346539
	    C     0.0241435842   0.0105268045  -0.7379653461
	    C    -0.0208564158  -0.0104731955   0.7080346539
	    N    -0.1098564158  -0.0524731955   3.5010346539
	    H     0.1411435842   0.0685268045  -4.6119653461
	    H    -1.7768564158   1.0875268045  -3.4139653461
	    H     1.9841435842  -0.9894731955  -3.3299653461
	    H    -1.8598564158   1.0565268045  -0.9479653461
	    H     1.9171435842  -1.0304731955  -0.8639653461
	    H     1.0161435842   1.8775268045   0.9580346539
	    H    -1.0708564158  -1.9044731955   0.8330346539
	    H     0.8871435842   1.7515268045   3.4380346539
	    H    -1.0998564158  -1.8524731955   3.3210346539
21
Geometry for iteration 0
	    C     0.1092134945   0.0523782510  -3.5436433357
	    C    -0.9644306819   0.6221847175  -2.8712814086
	    C     1.1403765440  -0.5386178517  -2.8241275763
	    C    -1.0065307335   0.6006291014  -1.4816438240
	    C     1.0963746735  -0.5593372480  -1.4345279277
	    C     0.5300605099   1.0193881929   1.4600943956
	    C    -0.6191751286  -1.0633192649   1.3940872747
	    C     0.4627989740   0.9548631271   2.8438583547
	    C    -0.6378280083  -1.0394298403   2.7800988399
	    C     0.0234383779   0.0098650221  -0.7536548943
	    C    -0.0218102137  -0.0112897984   0.7104853724
	    N    -0.1102268072  -0.0521464897   3.5182991150
	    H     0.1436595656   0.0711295902  -4.6240015652
	    H    -1.7671415136   1.0852654587  -3.4281990318
	    H     1.9784924079  -0.9811080529  -3.3441301512
	    H    -1.8452277803   1.0470097521  -0.9641781558
	    H     1.9030767464  -1.0202738203  -0.8802098682
	    H     1.0074258971   1.8598196223   0.9773549752
	    H    -1.0642782695  -1.8883464614   0.8566896650
	    H     0.8851142561   1.7422840453   3.4542408451
	    H    -1.0983670413  -1.8428851579   3.3401166340
21
Geometry for iteration 2
	    C     0.1106929309   0.0535285547  -3.5469579753
	    C    -0.9600322447   0.6272726675  -2.8758133029
	    C     1.1389518956  -0.5386767615  -2.8271861777
	    C    -1.0017982739   0.6085946284  -1.4885035498
	    C     1.0964318896  -0.5556258325  -1.4398730819
	    C     0.5280578514   1.0189635302   1.4692990447
	    C    -0.6169812955  -1.0575475864   1.3981059509
	    C     0.4600891113   0.9527552461   2.8525595294
	    C    -0.6378758272  -1.0375759185   2.7840685069
	    C     0.0256041035   0.0166862735  -0.7591577271
	    C    -0.0216111332  -0.0069775149   0.7107360866
	    N    -0.1093348920  -0.0551552295   3.5190741704
	    H     0.1397022383   0.0606336260  -4.6255727022
	    H    -1.7655046194   1.0825143986  -3.4313622082
	    H     1.9703977872  -0.9920900957  -3.3447351942
	    H    -1.8361228462   1.0522038305  -0.9659945069
	    H     1.8942786541  -1.0198993020  -0.8795784431
	    H     0.9996965776   1.8612418569   0.9866559951
	    H    -1.0549250753  -1.8827864868   0.8577738792
	    H     0.8790627295   1.7432863364   3.4591966368
	    H    -1.0870218670  -1.8512346506   3.3363054448
21
Geometry for iteration 90878096
	    C     0.1095740662   0.0536321231  -3.5455630821
	    C    -0.9666540044   0.6162130279  -2.8731346131
	    C     1.1407831649  -0.5363306018  -2.8277327828
	    C    -1.0106712597   0.5897320054  -1.4864185036
	    C     1.0946872258  -0.5651484066  -1.4410646523
	    C     0.5306191018   1.0110692940   1.4626656767
	    C    -0.6182202109  -1.0646409452   1.4044426567
	    C     0.4636388527   0.9531194766   2.8462843995
	    C    -0.6353712412  -1.0377431111   2.7905080412
	    C     0.0201053126   0.0000421416  -0.7596721370
	    C    -0.0220201368  -0.0184744749   0.7105422394
	    N    -0.1096479087  -0.0486694136   3.5169376694
	    H     0.1508519012   0.0862261798  -4.6235845258
	    H    -1.7659230796   1.0846668344  -3.4267205246
	    H     1.9851968766  -0.9650561597  -3.3459268638
	    H    -1.8434287238   1.0315155108  -0.9598517491
	    H     1.8996929316  -1.0151582130  -0.8792277722
	    H     1.0100892599   1.8456548829   0.9735585650
	    H    -1.0702451580  -1.8855312883   0.8683025166
	    H     0.8933851538   1.7436924828   3.4452807552
	    H    -1.1138901463  -1.8337349691   3.3445853539
21
Geometry for iteration 4
	    C     0.1102045887   0.0547738413  -3.5456166286
	    C    -0.9625877096   0.6252898555  -2.8744424035
	    C     1.1399769550  -0.5359109672  -2.8263345251
	    C    -1.0054427658   0.6044943957  -1.4874156982
	    C     1.0966219721  -0.5560282658  -1.4392830155
	    C     0.5282097932   1.0197369777   1.4669595674
	    C    -0.6172617508  -1.0576244013   1.4003605272
	    C     0.4623271776   0.9553460884   2.8505530129
	    C    -0.6361498181  -1.0353305996   2.7866040796
	    C     0.0236642698   0.0137097503  -0.7591113829
	    C    -0.0220586169  -0.0081127044   0.7108539323
	    N    -0.1087831998  -0.0503285274   3.5174968882
	    H     0.1446334591   0.0721472187  -4.6241418254
	    H    -1.7642688664   1.0877742338  -3.4296255443
	    H     1.9767513295  -0.9797070697  -3.3440626639
	    H    -1.8383767618   1.0477044548  -0.9622126012
	    H     1.8960163024  -1.0151517060  -0.8767742137
	    H     1.0036430815   1.8585553994   0.9812676672
	    H    -1.0603029972  -1.8812971421   0.8610497941
	    H     0.8862367233   1.7465180306   3.4529589495
	    H    -1.0954847758  -1.8441744201   3.3380223042
21
Geometry for iteration 4
	    C     0.1102475320   0.0560452829  -3.5455349207
	    C    -0.9642726079   0.6225979170  -2.8737246233
	    C     1.1407400841  -0.5342774181  -2.8269805435
	    C    -1.0077162033   0.5989641297  -1.4868463988
	    C     1.0960008467  -0.5587373884  -1.4401068843
	    C     0.5297732814   1.0172525678   1.4648939735
	    C    -0.6173889090  -1.0592892704   1.4024807519
	    C     0.4633483145   0.9560791828   2.8485114569
	    C    -0.6353939037  -1.0346833271   2.7886359857
	    C     0.0222281765   0.0087272311  -0.7593205069
	    C    -0.0216878652  -0.0114458018   0.7107735956
	    N    -0.1088497765  -0.0476556843   3.5173198834
	    H     0.1481278939   0.0810148094  -4.6238722967
	    H    -1.7647450666   1.0880655468  -3.4281340950
	    H     1.9813780745  -0.9705600212  -3.3449898563
	    H    -1.8405641543   1.0414618842  -0.9609639388
	    H     1.8982347994  -1.0133195744  -0.8779439603
	    H     1.0072275521   1.8539628650   0.9774876654
	    H    -1.0649380086  -1.8815916466   0.8647547765
	    H     0.8901874429   1.7469633938   3.4492082936
	    H    -1.1043691132  -1.8371902355   3.3414578625
21
Geometry for iteration 0
	    C     0.1102180281   0.0540590835  -3.5454157468
	    C    -0.9625863234   0.6245787478  -2.8742028796
	    C     1.1400446155  -0.5368529770  -2.8262981736
	    C    -1.0052532740   0.6038966040  -1.4871625228
	    C     1.0968451040  -0.5571239606  -1.4392462653
	    C     0.5286175826   1.0185572734   1.4669485727
	    C    -0.6172804685  -1.0588078774   1.3999490318
	    C     0.4619985277   0.9542244621   2.8505767172
	    C    -0.6364594023  -1.0365252143   2.7862890433
	    C     0.0239412437   0.0128606188  -0.7590812073
	    C    -0.0217713247  -0.0092325499   0.7107836792
	    N    -0.1091542390  -0.0515857286   3.5170980141
	    H     0.1438060252   0.0701988557  -4.6239498717
	    H    -1.7650780540   1.0856803843  -3.4294429168
	    H     1.9762494647  -0.9814127793  -3.3442089829
	    H    -1.8381908808   1.0466169955  -0.9614708937
	    H     1.8960656925  -1.0161492011  -0.8764125397
	    H     1.0037139356   1.8575848150   0.9811972247
	    H    -1.0602299902  -1.8823924439   0.8603625417
	    H     0.8857900678   1.7456636032   3.4527428566
	    H    -1.0961596754  -1.8454411024   3.3370133438
21
Geometry for iteration 6
	    C     0.1104205561   0.0536933782  -3.5451742780
	    C    -0.9626590096   0.6237888976  -2.8740109560
	    C     1.1399612788  -0.5379330378  -2.8261763040
	    C    -1.0057025900   0.6024608660  -1.4869546065
	    C     1.0963584420  -0.5591943872  -1.4391246908
	    C     0.5289118924   1.0169228153   1.4664047713
	    C    -0.6177835013  -1.0602600451   1.3999193757
	    C     0.4616509748   0.9531718447   2.8501409109
	    C    -0.6368527616  -1.0375363229   2.7864064058
	    C     0.0234499427   0.0110205903  -0.7590252499
	    C    -0.0220704548  -0.0108711086   0.7106877975
	    N    -0.1090726463  -0.0526823397   3.5168129247
	    H     0.1440201349   0.0700235819  -4.6236792360
	    H    -1.7655430530   1.0840874473  -3.4294354771
	    H     1.9760316846  -0.9824350775  -3.3442919813
	    H    -1.8385559813   1.0451111582  -0.9609258548
	    H     1.8956164814  -1.0178710480  -0.8759962650
	    H     1.0032935032   1.8561582731   0.9802418385
	    H    -1.0605446783  -1.8840767589   0.8604776741
	    H     0.8854309401   1.7450439512   3.4518075029
	    H    -1.0964326640  -1.8465275764   3.3369260879
21
Geometry for iteration 7
	    C     0.1103863612   0.0537223640  -3.5451897593
	    C    -0.9626932045   0.6238178833  -2.8740264373
	    C     1.1399270839  -0.5379040521  -2.8261917853
	    C    -1.0057367849   0.6024898517  -1.4869700878
	    C     1.0963242472  -0.5591654015  -1.4391401722
	    C     0.5288776975   1.0169518010   1.4663892900
	    C    -0.6178176962  -1.0602310594   1.3999038943
	    C     0.4616167799   0.9532008304   2.8501254295
	    C    -0.6368869565  -1.0375073372   2.7863909245
	    C     0.0234157478   0.0110495760  -0.7590407313
	    C    -0.0221046497  -0.0108421229   0.7106723162
	    N    -0.1091068412  -0.0526533540   3.5167974434
	    H     0.1439859400   0.0700525676  -4.6236947173
	    H    -1.7655772479   1.0841164331  -3.4294509585
	    H     1.9759974897  -0.9824060918  -3.3443074627
	    H    -1.8385901761   1.0451401439  -0.9609413361
	    H     1.8955822865  -1.0178420623  -0.8760117463
	    H     1.0032593084   1.8561872588   0.9802263572
	    H    -1.0605788732  -1.8840477732   0.8604621928
	    H     0.8853967453   1.7450729370   3.4517920215
	    H    -1.0964668589  -1.8464985906   3.3369106066
