21
Geometry for iteration 0
	    C    -1.3453866959   0.7677043859  -0.7814417168
	    C    -2.4233866959   1.3407043859  -0.1084417168
	    C     2.0976133041   0.0507043859  -0.5494417168
	    C     0.5946133041  -1.4652956141  -1.6574417168
	    C    -1.4303866959   0.7247043859   2.0065582832
	    C     3.1326133041  -0.5522956141  -1.2454417168
	    C     1.6966133041  -1.9992956141  -2.3044417168
	    C    -0.3093866959   0.1727043859  -0.0614417168
	    C     0.8076133041  -0.4202956141  -0.7644417168
	    C    -2.4663866959   1.3197043859   1.2855582832
	    C    -0.3523866959   0.1517043859   1.3325582832
	    N     2.9656133041  -1.5682956141  -2.1204417168
	    O    -3.4573866959   1.8467043859   1.9045582832
	    F     0.6356133041  -0.4162956141   2.0395582832
	    H    -1.3263866959   0.7907043859  -1.8694417168
	    H    -3.2193866959   1.7967043859  -0.6944417168
	    H     2.3036133041   0.8627043859   0.1405582832
	    H    -0.3983866959  -1.8582956141  -1.8514417168
	    H    -1.4393866959   0.6947043859   3.0945582832
	    H     4.1586133041  -0.2222956141  -1.1114417168
	    H     1.5846133041  -2.8152956141  -3.0114417168
21
Geometry for iteration 0
	    C    -1.3453866959   0.7677043859  -0.7814417168
	    C    -2.4233866959   1.3407043859  -0.1084417168
	    C     2.0976133041   0.0507043859  -0.5494417168
	    C     0.5946133041  -1.4652956141  -1.6574417168
	    C    -1.4303866959   0.7247043859   2.0065582832
	    C     3.1326133041  -0.5522956141  -1.2454417168
	    C     1.6966133041  -1.9992956141  -2.3044417168
	    C    -0.3093866959   0.1727043859  -0.0614417168
	    C     0.8076133041  -0.4202956141  -0.7644417168
	    C    -2.4663866959   1.3197043859   1.2855582832
	    C    -0.3523866959   0.1517043859   1.3325582832
	    N     2.9656133041  -1.5682956141  -2.1204417168
	    O    -3.4573866959   1.8467043859   1.9045582832
	    F     0.6356133041  -0.4162956141   2.0395582832
	    H    -1.3263866959   0.7907043859  -1.8694417168
	    H    -3.2193866959   1.7967043859  -0.6944417168
	    H     2.3036133041   0.8627043859   0.1405582832
	    H    -0.3983866959  -1.8582956141  -1.8514417168
	    H    -1.4393866959   0.6947043859   3.0945582832
	    H     4.1586133041  -0.2222956141  -1.1114417168
	    H     1.5846133041  -2.8152956141  -3.0114417168
21
Geometry for iteration 1
	    C    -1.3753668373   0.7624458148  -0.7587122752
	    C    -2.4472014465   1.3437873801  -0.0956344102
	    C     2.1163657313   0.0129041384  -0.5617657816
	    C     0.6365449363  -1.4694939690  -1.6777533827
	    C    -1.4435223749   0.7470111857   2.0144718821
	    C     3.1566787730  -0.5833034017  -1.2579778780
	    C     1.7393932357  -1.9989163522  -2.3306480329
	    C    -0.3206315508   0.1664407471  -0.0617943538
	    C     0.8133309510  -0.4340241683  -0.7631049427
	    C    -2.5261735391   1.3570525749   1.3245297887
	    C    -0.3862430571   0.1826205231   1.3279305699
	    N     2.9988923540  -1.5806660194  -2.1400015353
	    O    -3.5106295306   1.8879494698   1.9495038064
	    F     0.6235324021  -0.3855783748   2.0262528738
	    H    -1.3494873267   0.7715701796  -1.8413457257
	    H    -3.2414538158   1.7966701010  -0.6706853689
	    H     2.3154698305   0.8156287982   0.1314161701
	    H    -0.3516682704  -1.8559187284  -1.8762980896
	    H    -1.4407554866   0.7220346647   3.0938286326
	    H     4.1775298962  -0.2508025738  -1.1154725372
	    H     1.6242745122  -2.8056198853  -3.0440154633
21
Geometry for iteration 2
	    C    -1.3837827120   0.7088655799  -0.7442440483
	    C    -2.4418392373   1.3128277601  -0.0990601031
	    C     2.1269969448  -0.0324237435  -0.5406161391
	    C     0.6554800968  -1.4725982677  -1.7005316380
	    C    -1.4330535415   0.7788133528   2.0160793767
	    C     3.1684455438  -0.6004265901  -1.2553174212
	    C     1.7543966098  -1.9746725196  -2.3793795028
	    C    -0.3193244321   0.1203086966  -0.0505407456
	    C     0.8187438411  -0.4743059082  -0.7385364965
	    C    -2.5389422891   1.3802963826   1.3310844763
	    C    -0.3927954791   0.2034603588   1.3378324087
	    N     3.0094735940  -1.5634725446  -2.1716998250
	    O    -3.5085000369   1.9261703176   1.9395382513
	    F     0.6287092790  -0.3466466160   2.0588603260
	    H    -1.3560961889   0.6926150325  -1.8265486845
	    H    -3.2373131041   1.7631318490  -0.6735057342
	    H     2.3213365435   0.7519279290   0.1745875306
	    H    -0.3333603940  -1.8519189241  -1.9097232254
	    H    -1.4264366598   0.7840322016   3.0948265474
	    H     4.1831691713  -0.2583478851  -1.0984860222
	    H     1.6260043852  -2.7534489761  -3.1210851158
21
Geometry for iteration 3
	    C    -1.3933732909   0.6386294352  -0.7361304290
	    C    -2.4391946667   1.2781616952  -0.1089496748
	    C     2.1208415548  -0.0764089560  -0.5053953564
	    C     0.6552630948  -1.4736257411  -1.7223659678
	    C    -1.4210211064   0.8181921518   2.0195627514
	    C     3.1627347563  -0.6047759924  -1.2497392777
	    C     1.7549061395  -1.9351842735  -2.4290883578
	    C    -0.3291273724   0.0573536897  -0.0303748600
	    C     0.8136760783  -0.5232917678  -0.7098984624
	    C    -2.5306238991   1.4030940043   1.3205512151
	    C    -0.3916079531   0.2101013123   1.3546701846
	    N     3.0085385613  -1.5264325567  -2.2096962730
	    O    -3.4887389482   1.9761204880   1.9102904627
	    F     0.6344192890  -0.3159028567   2.0976353519
	    H    -1.3680623337   0.5911470736  -1.8186580135
	    H    -3.2316494655   1.7243046051  -0.6935345872
	    H     2.3125026256   0.6809986417   0.2405408399
	    H    -0.3324315806  -1.8504667257  -1.9452533921
	    H    -1.4075265840   0.8639773083   3.0985953360
	    H     4.1744728032  -0.2595686278  -1.0812291024
	    H     1.6249848892  -2.6774562116  -3.2078818980
21
Geometry for iteration 4
	    C    -1.4045510441   0.5875089767  -0.7314936843
	    C    -2.4380941340   1.2556728923  -0.1158193732
	    C     2.1106031311  -0.1066180243  -0.4806492700
	    C     0.6527724735  -1.4764447923  -1.7376538212
	    C    -1.4092941251   0.8436916568   2.0177844292
	    C     3.1538930155  -0.6030829154  -1.2431603188
	    C     1.7540441328  -1.9062730391  -2.4600157661
	    C    -0.3432084954   0.0064993069  -0.0177505731
	    C     0.8047724894  -0.5552373897  -0.6976474431
	    C    -2.5188946614   1.4184760464   1.3101856983
	    C    -0.3926879094   0.2056561427   1.3614446807
	    N     3.0058136855  -1.4944001940  -2.2327583934
	    O    -3.4662914382   2.0167678519   1.8892063820
	    F     0.6349783736  -0.3082030831   2.1135910553
	    H    -1.3840199714   0.5178771623  -1.8128288167
	    H    -3.2264958580   1.6998612156  -0.7077339060
	    H     2.3003553611   0.6276188867   0.2881452343
	    H    -0.3313280425  -1.8581518551  -1.9682568291
	    H    -1.3858017755   0.9183366424   3.0947600648
	    H     4.1631978272  -0.2548754110  -1.0658519576
	    H     1.6273878910  -2.6255096305  -3.2599296393
21
Geometry for iteration 5
	    C    -1.4076773876   0.5839106167  -0.7317570165
	    C    -2.4384982347   1.2547486538  -0.1153112436
	    C     2.1068215158  -0.1089103890  -0.4810366971
	    C     0.6529935441  -1.4803275301  -1.7394140480
	    C    -1.4072484200   0.8417087034   2.0161290730
	    C     3.1513955217  -0.6036177256  -1.2417612252
	    C     1.7554041239  -1.9095975034  -2.4591204042
	    C    -0.3468552609   0.0006098709  -0.0187393196
	    C     0.8019758743  -0.5587537409  -0.7000614226
	    C    -2.5152909949   1.4197123057   1.3096857060
	    C    -0.3939598622   0.2003748986   1.3591028446
	    N     3.0063225188  -1.4958869308  -2.2300369511
	    O    -3.4627601825   2.0176868769   1.8902760668
	    F     0.6333147849  -0.3167440606   2.1081148544
	    H    -1.3895468830   0.5127744947  -1.8125747682
	    H    -3.2272223831   1.6981983060  -0.7066788974
	    H     2.2954295578   0.6248811942   0.2874660921
	    H    -0.3299180095  -1.8635207826  -1.9718469638
	    H    -1.3819913534   0.9152475163   3.0924457189
	    H     4.1600069238  -0.2541107216  -1.0630787370
	    H     1.6309965408  -2.6286432718  -3.2589067664
21
Geometry for iteration 5
	    C    -1.4069890112   0.5830065489  -0.7318596057
	    C    -2.4402603116   1.2505728158  -0.1155231355
	    C     2.1085376719  -0.1065840377  -0.4801945895
	    C     0.6549358622  -1.4774845506  -1.7401590746
	    C    -1.4107649132   0.8368272910   2.0170180856
	    C     3.1534208505  -0.6000528786  -1.2418840707
	    C     1.7576303671  -1.9048946723  -2.4611610537
	    C    -0.3455575194   0.0012890171  -0.0186405364
	    C     0.8038376552  -0.5571137310  -0.6993471354
	    C    -2.5199324987   1.4127207555   1.3101294971
	    C    -0.3947438022   0.1991033038   1.3600843894
	    N     3.0083751037  -1.4908806731  -2.2319177394
	    O    -3.4683515641   2.0090609738   1.8901701640
	    F     0.6329815949  -0.3160316578   2.1105610224
	    H    -1.3870567180   0.5138902002  -1.8130078425
	    H    -3.2290661466   1.6941375170  -0.7070312889
	    H     2.2964792270   0.6267683269   0.2893892811
	    H    -0.3280057196  -1.8608349744  -1.9725872262
	    H    -1.3869917579   0.9097072537   3.0937608911
	    H     4.1618794526  -0.2502032226  -1.0630050697
	    H     1.6333341115  -2.6232628245  -3.2618990674
21
Geometry for iteration 0
	    C    -1.4051919485   0.5846789927  -0.7320018680
	    C    -2.4387350384   1.2528429082  -0.1163275568
	    C     2.1099622268  -0.1094480084  -0.4811574537
	    C     0.6521315691  -1.4792747764  -1.7381620049
	    C    -1.4099350295   0.8408616728   2.0172762455
	    C     3.1532521111  -0.6059128995  -1.2436685025
	    C     1.7534032285  -1.9091030232  -2.4605239498
	    C    -0.3438493998   0.0036693228  -0.0182587568
	    C     0.8041315850  -0.5580673738  -0.6981556268
	    C    -2.5195355658   1.4156460623   1.3096775146
	    C    -0.3933288138   0.2028261586   1.3609364970
	    N     3.0051727811  -1.4972301780  -2.2332665771
	    O    -3.4669323425   2.0139378678   1.8886981983
	    F     0.6343374692  -0.3110330672   2.1130828716
	    H    -1.3846608758   0.5150471782  -1.8133370004
	    H    -3.2271367623   1.6970312316  -0.7082420897
	    H     2.2997144568   0.6247889027   0.2876370506
	    H    -0.3319689469  -1.8609818392  -1.9687650128
	    H    -1.3864426799   0.9155066584   3.0942518811
	    H     4.1625569228  -0.2577053950  -1.0663601412
	    H     1.6267469867  -2.6283396145  -3.2604378230
21
Geometry for iteration 0
	    C    -1.3453866959   0.7677043859  -0.7814417168
	    C    -2.4233866959   1.3407043859  -0.1084417168
	    C     2.0976133041   0.0507043859  -0.5494417168
	    C     0.5946133041  -1.4652956141  -1.6574417168
	    C    -1.4303866959   0.7247043859   2.0065582832
	    C     3.1326133041  -0.5522956141  -1.2454417168
	    C     1.6966133041  -1.9992956141  -2.3044417168
	    C    -0.3093866959   0.1727043859  -0.0614417168
	    C     0.8076133041  -0.4202956141  -0.7644417168
	    C    -2.4663866959   1.3197043859   1.2855582832
	    C    -0.3523866959   0.1517043859   1.3325582832
	    N     2.9656133041  -1.5682956141  -2.1204417168
	    O    -3.4573866959   1.8467043859   1.9045582832
	    F     0.6356133041  -0.4162956141   2.0395582832
	    H    -1.3263866959   0.7907043859  -1.8694417168
	    H    -3.2193866959   1.7967043859  -0.6944417168
	    H     2.3036133041   0.8627043859   0.1405582832
	    H    -0.3983866959  -1.8582956141  -1.8514417168
	    H    -1.4393866959   0.6947043859   3.0945582832
	    H     4.1586133041  -0.2222956141  -1.1114417168
	    H     1.5846133041  -2.8152956141  -3.0114417168
21
Geometry for iteration 909456178
	    C    -1.3615049509   0.7698562403  -0.7707027372
	    C    -2.4369726049   1.3444130113  -0.1021472032
	    C     2.1073091349   0.0338328253  -0.5579552934
	    C     0.6161580127  -1.4673414275  -1.6667883643
	    C    -1.4365426055   0.7333040811   2.0108151231
	    C     3.1448267825  -0.5684889126  -1.2520706969
	    C     1.7192947625  -2.0015868042  -2.3136939119
	    C    -0.3152393696   0.1734089385  -0.0635284500
	    C     0.8101699873  -0.4239387296  -0.7661488330
	    C    -2.4977605391   1.3378095670   1.3066089234
	    C    -0.3704370418   0.1666378905   1.3281586056
	    N     2.9823533894  -1.5769112576  -2.1269239336
	    O    -3.4856583620   1.8647342931   1.9298397449
	    F     0.6299238804  -0.4036139924   2.0294537882
	    H    -1.3405442082   0.7881547542  -1.8558011386
	    H    -3.2316414720   1.7980342653  -0.6833728123
	    H     2.3113908936   0.8419751854   0.1318837344
	    H    -0.3737087702  -1.8579277878  -1.8637570461
	    H    -1.4372664744   0.7026132641   3.0940839618
	    H     4.1684932908  -0.2383481096  -1.1135271224
	    H     1.6062356510  -2.8148251903  -3.0217023921
21
Geometry for iteration 2
	    C    -1.3716894333   0.7658623895  -0.7612105641
	    C    -2.4425966097   1.3412535131  -0.0981905115
	    C     2.1188002703   0.0155893376  -0.5637821631
	    C     0.6367435297  -1.4703234827  -1.6760514958
	    C    -1.4369353271   0.7393872766   2.0116702516
	    C     3.1578867975  -0.5845011082  -1.2569189757
	    C     1.7395243943  -2.0038887932  -2.3245060571
	    C    -0.3152505128   0.1688313735  -0.0662839112
	    C     0.8149394100  -0.4303016360  -0.7664222981
	    C    -2.5221769783   1.3514365979   1.3236664351
	    C    -0.3840468763   0.1791626089   1.3230831759
	    N     2.9973790530  -1.5847683960  -2.1337926641
	    O    -3.5026769677   1.8764407338   1.9464223879
	    F     0.6291684750  -0.3922884706   2.0236897662
	    H    -1.3490188513   0.7787483799  -1.8442566645
	    H    -3.2378061154   1.7929381615  -0.6742060511
	    H     2.3207556702   0.8195998456   0.1278713021
	    H    -0.3515923374  -1.8576683980  -1.8756076836
	    H    -1.4312722057   0.7103158692   3.0913748718
	    H     4.1787512681  -0.2528421164  -1.1122597493
	    H     1.6219974987  -2.8131289752  -3.0346684745
21
Geometry for iteration 3
	    C    -1.3785981577   0.7482266481  -0.7516412458
	    C    -2.4438384079   1.3312193873  -0.0958177973
	    C     2.1271853833  -0.0061732032  -0.5603659182
	    C     0.6514460605  -1.4726991652  -1.6866160665
	    C    -1.4369506042   0.7525497416   2.0128387699
	    C     3.1675677092  -0.5966720904  -1.2588235887
	    C     1.7523958081  -1.9976895043  -2.3449820172
	    C    -0.3143749872   0.1525404055  -0.0640679773
	    C     0.8188171628  -0.4453721461  -0.7587158444
	    C    -2.5394586974   1.3649322026   1.3340684686
	    C    -0.3933208067   0.1920145683   1.3240313965
	    N     3.0078665120  -1.5833995011  -2.1480327259
	    O    -3.5123365099   1.8936185602   1.9509646913
	    F     0.6289291795  -0.3738001187   2.0318995063
	    H    -1.3537359015   0.7512730091  -1.8340170601
	    H    -3.2403804631   1.7823653399  -0.6683606852
	    H     2.3258908438   0.7910243666   0.1387522378
	    H    -0.3370475258  -1.8560878058  -1.8892013654
	    H    -1.4288642159   0.7337754650   3.0912495059
	    H     4.1852746033  -0.2606615335  -1.1077478755
	    H     1.6281249303  -2.7969882339  -3.0644289229
21
Geometry for iteration 4
	    C    -1.3814980651   0.7170033169  -0.7458674000
	    C    -2.4414850059   1.3149027585  -0.0990409844
	    C     2.1292820796  -0.0286831901  -0.5460864406
	    C     0.6555146043  -1.4739347796  -1.6969571452
	    C    -1.4340059009   0.7708662658   2.0151948398
	    C     3.1696498312  -0.6027640030  -1.2575489588
	    C     1.7545860707  -1.9815564979  -2.3717415169
	    C    -0.3152426824   0.1255452142  -0.0549855255
	    C     0.8199857957  -0.4684046694  -0.7434985869
	    C    -2.5424415682   1.3750638085   1.3326321770
	    C    -0.3940789962   0.2005579187   1.3326356166
	    N     3.0100946903  -1.5705702822  -2.1680693215
	    O    -3.5107739530   1.9140431477   1.9402206914
	    F     0.6314434613  -0.3530350896   2.0531643911
	    H    -1.3550270638   0.7059013020  -1.8285917195
	    H    -3.2378391967   1.7649794054  -0.6737579823
	    H     2.3258604422   0.7579878724   0.1660080252
	    H    -0.3336722919  -1.8541184897  -1.9040604864
	    H    -1.4256123570   0.7701894710   3.0941372177
	    H     4.1852538190  -0.2629759029  -1.1016863159
	    H     1.6255773534  -2.7646550215  -3.1081680064
21
Geometry for iteration 5
	    C    -1.3850416474   0.6816669340  -0.7419507507
	    C    -2.4395751223   1.2969720511  -0.1045183623
	    C     2.1274060400  -0.0508854686  -0.5287007091
	    C     0.6549728228  -1.4739250282  -1.7078723797
	    C    -1.4295378368   0.7909621003   2.0170497943
	    C     3.1672719450  -0.6054712703  -1.2557144525
	    C     1.7529504935  -1.9616784464  -2.3985401480
	    C    -0.3191464896   0.0949128125  -0.0440308352
	    C     0.8182362879  -0.4922893267  -0.7284906788
	    C    -2.5391922594   1.3850069769   1.3263566261
	    C    -0.3932888287   0.2051959058   1.3424636623
	    N     3.0086561622  -1.5526043732  -2.1890483214
	    O    -3.5042934971   1.9369948739   1.9245630650
	    F     0.6335187741  -0.3343137049   2.0752936260
	    H    -1.3581865116   0.6545411860  -1.8248487789
	    H    -3.2348370704   1.7448736952  -0.6836746973
	    H     2.3228407599   0.7223254772   0.1989511682
	    H    -0.3342515667  -1.8521269387  -1.9204097243
	    H    -1.4197235300   0.8109858987   3.0963260173
	    H     4.1814799383  -0.2639037570  -1.0944684097
	    H     1.6214969025  -2.7265257905  -3.1538016079
21
Geometry for iteration 6
	    C    -1.3902817671   0.6454172386  -0.7381260749
	    C    -2.4382616744   1.2795523662  -0.1098483759
	    C     2.1231011151  -0.0727887134  -0.5105064023
	    C     0.6535418409  -1.4739338076  -1.7189672003
	    C    -1.4234989693   0.8110266722   2.0181429250
	    C     3.1628933058  -0.6064177258  -1.2525872719
	    C     1.7514234515  -1.9406784312  -2.4235490707
	    C    -0.3257392705   0.0624156577  -0.0327584153
	    C     0.8144724105  -0.5158521002  -0.7151914291
	    C    -2.5330051941   1.3954417509   1.3192130455
	    C    -0.3926735514   0.2070217994   1.3514322010
	    N     3.0066519053  -1.5322745410  -2.2081473670
	    O    -3.4938412020   1.9630018455   1.9089864242
	    F     0.6346328657  -0.3200372974   2.0940174735
	    H    -1.3642800495   0.6017480788  -1.8206773415
	    H    -3.2314561437   1.7253702577  -0.6939915346
	    H     2.3175327427   0.6856162300   0.2330904216
	    H    -0.3346469976  -1.8519370998  -1.9375214558
	    H    -1.4102174154   0.8521217614   3.0969764904
	    H     4.1756734119  -0.2630699227  -1.0859156479
	    H     1.6198176281  -2.6877161803  -3.1965708810
21
Geometry for iteration 7
	    C    -1.3985000353   0.6111636774  -0.7344676846
	    C    -2.4380961968   1.2648433405  -0.1134152904
	    C     2.1158885056  -0.0935203280  -0.4928861369
	    C     0.6529509608  -1.4753501707  -1.7305460188
	    C    -1.4149806665   0.8303184674   2.0179465197
	    C     3.1574595282  -0.6060485956  -1.2466872824
	    C     1.7525235752  -1.9212046894  -2.4452782767
	    C    -0.3356140150   0.0296508975  -0.0236972528
	    C     0.8086379024  -0.5388061233  -0.7051790432
	    C    -2.5247654507   1.4073843618   1.3136310326
	    C    -0.3923168627   0.2067197380   1.3571886161
	    N     3.0060752549  -1.5116651511  -2.2223223553
	    O    -3.4794716484   1.9913425850   1.8973608133
	    F     0.6360221782  -0.3112549956   2.1048970897
	    H    -1.3757314438   0.5513805496  -1.8161967895
	    H    -3.2293733626   1.7084541813  -0.7016359583
	    H     2.3079560925   0.6501811378   0.2658706806
	    H    -0.3330139725  -1.8546289743  -1.9567470234
	    H    -1.3953875792   0.8911884154   3.0955821545
	    H     4.1683521183  -0.2603328359  -1.0733932155
	    H     1.6236598466  -2.6516340628  -3.2344517232
21
Geometry for iteration 8
	    C    -1.4089450752   0.5841373562  -0.7318964965
	    C    -2.4392525189   1.2549243068  -0.1143178497
	    C     2.1064353643  -0.1089994994  -0.4791410211
	    C     0.6531537043  -1.4777550727  -1.7417544733
	    C    -1.4053175548   0.8448586356   2.0166529512
	    C     3.1517621080  -0.6043022968  -1.2387864337
	    C     1.7563202563  -1.9076385804  -2.4601371662
	    C    -0.3472421808   0.0012681569  -0.0193534011
	    C     0.8013485512  -0.5569226648  -0.7009797348
	    C    -2.5157250013   1.4189851757   1.3109639805
	    C    -0.3925465193   0.2032232093   1.3584607296
	    N     3.0074722129  -1.4955536240  -2.2284640031
	    O    -3.4632108482   2.0169824502   1.8920765362
	    F     0.6381133332  -0.3093357539   2.1064505405
	    H    -1.3913276071   0.5123283820  -1.8128098413
	    H    -3.2294431534   1.6978128397  -0.7042722208
	    H     2.2942190660   0.6238862868   0.2907935664
	    H    -0.3299282749  -1.8597238030  -1.9757555394
	    H    -1.3780933017   0.9206284674   3.0929704016
	    H     4.1605191205  -0.2564079772  -1.0574332483
	    H     1.6325301647  -2.6265279756  -3.2604677132
21
Geometry for iteration 9
	    C    -1.4054802208   0.5908880931  -0.7327399211
	    C    -2.4383942760   1.2573077844  -0.1147300402
	    C     2.1081951480  -0.1055121216  -0.4841404361
	    C     0.6524283597  -1.4812225297  -1.7359752859
	    C    -1.4101539549   0.8368904126   2.0169716404
	    C     3.1521742934  -0.6054755271  -1.2425719537
	    C     1.7540533489  -1.9143653763  -2.4547290099
	    C    -0.3442044218   0.0078882125  -0.0201380991
	    C     0.8030117973  -0.5554318859  -0.7004268381
	    C    -2.5188327705   1.4139360854   1.3110162097
	    C    -0.3937325529   0.2015809843   1.3584714608
	    N     3.0056574511  -1.5013991306  -2.2274218063
	    O    -3.4676488755   2.0095032007   1.8924006919
	    F     0.6330826035  -0.3177970548   2.1067217134
	    H    -1.3862273736   0.5224377621  -1.8138190108
	    H    -3.2271458411   1.7023527783  -0.7049923109
	    H     2.2973513705   0.6324660868   0.2804447220
	    H    -0.3313531765  -1.8632142504  -1.9669797795
	    H    -1.3866524650   0.9063255594   3.0937586806
	    H     4.1609482530  -0.2545936861  -1.0671955712
	    H     1.6286494531  -2.6366073567  -3.2516330644
21
Geometry for iteration 10
	    C    -1.4043148659   0.5911927752  -0.7325842133
	    C    -2.4379774903   1.2570086923  -0.1151805270
	    C     2.1091142396  -0.1055882994  -0.4843039092
	    C     0.6521450213  -1.4810448304  -1.7350755033
	    C    -1.4110450702   0.8366285740   2.0172006014
	    C     3.1524323072  -0.6058323914  -1.2434696208
	    C     1.7531335387  -1.9141283632  -2.4548631241
	    C    -0.3431559205   0.0087095574  -0.0193390903
	    C     0.8036674874  -0.5554022391  -0.6994522561
	    C    -2.5195092265   1.4131014342   1.3105302272
	    C    -0.3936319684   0.2022230786   1.3592806142
	    N     3.0050134530  -1.5015104454  -2.2284653665
	    O    -3.4689802298   2.0082838022   1.8913511816
	    F     0.6326551124  -0.3169904218   2.1084218885
	    H    -1.3843218473   0.5227749665  -1.8136723405
	    H    -3.2265221823   1.7019156421  -0.7058440284
	    H     2.2989480693   0.6323515292   0.2802065944
	    H    -0.3319241866  -1.8626412728  -1.9655042321
	    H    -1.3883282713   0.9059385156   3.0940328559
	    H     4.1613702152  -0.2549276758  -1.0690484678
	    H     1.6269579650  -2.6361045873  -3.2519292921
21
Geometry for iteration 45918272
	    C    -1.4070042907   0.5869601549  -0.7322678030
	    C    -2.4389846924   1.2552649164  -0.1147575749
	    C     2.1074124883  -0.1079995374  -0.4817359288
	    C     0.6522945960  -1.4801312413  -1.7384496758
	    C    -1.4085416297   0.8400368078   2.0169349132
	    C     3.1517433460  -0.6057800514  -1.2411346035
	    C     1.7543825691  -1.9116170878  -2.4575234071
	    C    -0.3455707910   0.0042801737  -0.0193820359
	    C     0.8021435703  -0.5568799990  -0.7002468942
	    C    -2.5179793647   1.4153403119   1.3107559960
	    C    -0.3934518041   0.2020116268   1.3588523266
	    N     3.0058990043  -1.4992572033  -2.2284744578
	    O    -3.4664534638   2.0119326935   1.8917323103
	    F     0.6350234329  -0.3138782304   2.1074345475
	    H    -1.3882057235   0.5168491547  -1.8132727788
	    H    -3.2283547264   1.6991655072  -0.7050642840
	    H     2.2962160017   0.6274273589   0.2854936976
	    H    -0.3312803179  -1.8619193499  -1.9706732377
	    H    -1.3835670616   0.9125768768   3.0935241240
	    H     4.1605968480  -0.2563660131  -1.0632301160
	    H     1.6294081593  -2.6320588284  -3.2562231260
21
Geometry for iteration 0
	    C    -1.4096648703   0.5827130715  -0.7319206665
	    C    -2.4399723139   1.2535000222  -0.1143420198
	    C     2.1057155693  -0.1104237841  -0.4791651912
	    C     0.6524339093  -1.4791793574  -1.7417786434
	    C    -1.4060373499   0.8434343509   2.0166287811
	    C     3.1510423130  -0.6057265815  -1.2388106038
	    C     1.7556004613  -1.9090628650  -2.4601613363
	    C    -0.3479619759  -0.0001561278  -0.0193775712
	    C     0.8006287561  -0.5583469495  -0.7010039049
	    C    -2.5164447963   1.4175608910   1.3109398105
	    C    -0.3932663143   0.2017989246   1.3584365595
	    N     3.0067524179  -1.4969779087  -2.2284881732
	    O    -3.4639306432   2.0155581656   1.8920523661
	    F     0.6373935382  -0.3107600386   2.1064263705
	    H    -1.3920474021   0.5109040974  -1.8128340114
	    H    -3.2301629485   1.6963885550  -0.7042963909
	    H     2.2934992710   0.6224620021   0.2907693963
	    H    -0.3306480699  -1.8611480877  -1.9757797095
	    H    -1.3788130967   0.9192041827   3.0929462315
	    H     4.1597993254  -0.2578322619  -1.0574574184
	    H     1.6318103697  -2.6279522603  -3.2604918833
