21
Geometry for iteration 0
	    C    -1.3450141744   0.7674915783  -0.7807181111
	    C    -2.4230141744   1.3404915783  -0.1077181111
	    C     1.4869858256  -1.5005084217  -0.2107181111
	    C     1.2049858256   0.0854915783  -1.9957181111
	    C    -1.4300141744   0.7244915783   2.0072818889
	    C     2.5489858256  -2.0325084217  -0.9237181111
	    C     2.2789858256  -0.5175084217  -2.6297181111
	    C    -0.3090141744   0.1724915783  -0.0607181111
	    C     0.8079858256  -0.4205084217  -0.7637181111
	    C    -2.4660141744   1.3194915783   1.2862818889
	    C    -0.3520141744   0.1514915783   1.3332818889
	    N     2.9639858256  -1.5675084217  -2.1237181111
	    O    -3.4570141744   1.8464915783   1.9052818889
	    F     0.6359858256  -0.4165084217   2.0402818889
	    H    -1.3260141744   0.7904915783  -1.8687181111
	    H    -3.2190141744   1.7964915783  -0.6937181111
	    H     1.2059858256  -1.9235084217   0.7482818889
	    H     0.6989858256   0.9274915783  -2.4587181111
	    H    -1.4390141744   0.6944915783   3.0952818889
	    H     3.1099858256  -2.8765084217  -0.5367181111
	    H     2.6289858256  -0.1595084217  -3.5917181111
21
Geometry for iteration 808596536
	    C    -1.3632739836   0.7764503309  -0.7713087441
	    C    -2.4376799410   1.3469983120  -0.1014709588
	    C     1.4988561481  -1.5042410244  -0.2222866670
	    C     1.2245498074   0.0717228341  -2.0016032079
	    C    -1.4357186391   0.7279313319   2.0118378368
	    C     2.5627963472  -2.0346975265  -0.9338390812
	    C     2.3003808413  -0.5319840339  -2.6310688257
	    C    -0.3155773157   0.1753174949  -0.0658854477
	    C     0.8079487561  -0.4210575176  -0.7659424216
	    C    -2.4958602757   1.3349771791   1.3079274860
	    C    -0.3725710916   0.1622440680   1.3273130392
	    N     2.9825534564  -1.5757234695  -2.1270899199
	    O    -3.4824967180   1.8594086669   1.9324814144
	    F     0.6275065699  -0.4083825866   2.0274901610
	    H    -1.3472003134   0.7989419407  -1.8555824671
	    H    -3.2331449907   1.8009808664  -0.6814242456
	    H     1.2212340408  -1.9313237683   0.7290976718
	    H     0.7261357565   0.9109419284  -2.4688615731
	    H    -1.4352140678   0.6946768497   3.0951441263
	    H     3.1206359157  -2.8780545835  -0.5438296560
	    H     2.6518420347  -0.1728041486  -3.5911788535
21
Geometry for iteration 2
	    C    -1.3685020539   0.7796273963  -0.7624378214
	    C    -2.4389193583   1.3482359890  -0.0988364836
	    C     1.5141171786  -1.5101705252  -0.2319185606
	    C     1.2399034939   0.0577616765  -2.0027782456
	    C    -1.4381725188   0.7293216960   2.0120822807
	    C     2.5776780330  -2.0383790380  -0.9445631574
	    C     2.3150241483  -0.5433141008  -2.6337649648
	    C    -0.3124080340   0.1725347770  -0.0698470424
	    C     0.8108000783  -0.4246017781  -0.7639174634
	    C    -2.5176373849   1.3474905816   1.3227834804
	    C    -0.3889209325   0.1693252935   1.3221963548
	    N     2.9977588673  -1.5823840375  -2.1337880497
	    O    -3.4971945954   1.8687432299   1.9450747911
	    F     0.6213745848  -0.4041640039   2.0223112236
	    H    -1.3520733419   0.8001853816  -1.8447884784
	    H    -3.2343236260   1.8013975745  -0.6741830076
	    H     1.2411484055  -1.9425562001   0.7142575374
	    H     0.7442720213   0.8959364922  -2.4702258375
	    H    -1.4332687627   0.6951305181   3.0920696418
	    H     3.1320935422  -2.8816250501  -0.5510527121
	    H     2.6612806996  -0.1784642313  -3.5931585274
21
Geometry for iteration 0
	    C    -1.3670331337   0.7814715375  -0.7528176069
	    C    -2.4360999768   1.3485306877  -0.0962450455
	    C     1.5307929055  -1.5158059863  -0.2406040861
	    C     1.2512031522   0.0458078355  -2.0018763098
	    C    -1.4447769062   0.7323937288   2.0122317090
	    C     2.5918966279  -2.0429635660  -0.9566677012
	    C     2.3232857379  -0.5519363183  -2.6395391083
	    C    -0.3046548850   0.1683033315  -0.0704154177
	    C     0.8159603475  -0.4282832101  -0.7593735550
	    C    -2.5371281471   1.3592721394   1.3331423750
	    C    -0.4040790613   0.1744369297   1.3210032307
	    N     3.0098175195  -1.5886935603  -2.1451664741
	    O    -3.5121246385   1.8782750771   1.9492713483
	    F     0.6120301233  -0.3977044191   2.0287550912
	    H    -1.3488893692   0.7984172116  -1.8346316586
	    H    -3.2333562578   1.8011435801  -0.6676611956
	    H     1.2618643676  -1.9547918478   0.7022508340
	    H     0.7563415206   0.8853799285  -2.4661002414
	    H    -1.4408225040   0.7003029148   3.0907938341
	    H     3.1419361404  -2.8871893207  -0.5598018261
	    H     2.6598968425  -0.1788679979  -3.5990302594
21
Geometry for iteration 4
	    C    -1.3561800554   0.7828228022  -0.7449109703
	    C    -2.4288200025   1.3481948615  -0.0980354083
	    C     1.5482214177  -1.5199664183  -0.2461948036
	    C     1.2557057541   0.0390371251  -1.9987289349
	    C    -1.4544955268   0.7349021393   2.0137992396
	    C     2.6027560905  -2.0480293672  -0.9706364769
	    C     2.3206075176  -0.5579422396  -2.6482239078
	    C    -0.2928996720   0.1648789897  -0.0634174888
	    C     0.8250190377  -0.4301866101  -0.7511726344
	    C    -2.5491577330   1.3661343447   1.3339016627
	    C    -0.4141935767   0.1749495916   1.3279575972
	    N     3.0131394768  -1.5947342105  -2.1619692940
	    O    -3.5253425446   1.8841976021   1.9405759051
	    F     0.6008732453  -0.3890566165   2.0531877120
	    H    -1.3344920633   0.7934590759  -1.8270241651
	    H    -3.2275680076   1.7983492381  -0.6701266511
	    H     1.2831769014  -1.9654584652   0.6954423013
	    H     0.7614740937   0.8830801725  -2.4559086863
	    H    -1.4566620507   0.7072727046   3.0924871394
	    H     3.1499027757  -2.8944161524  -0.5746559051
	    H     2.6450195008  -0.1782526920  -3.6091861071
21
Geometry for iteration 5
	    C    -1.3390918250   0.7859778012  -0.7390075465
	    C    -2.4186608996   1.3488554039  -0.1039175355
	    C     1.5651744159  -1.5208561113  -0.2489639687
	    C     1.2553801586   0.0370874859  -1.9951068316
	    C    -1.4660159995   0.7344768461   2.0152045235
	    C     2.6091172828  -2.0527341313  -0.9853617681
	    C     2.3091140367  -0.5635403356  -2.6588672934
	    C    -0.2795275450   0.1650519784  -0.0510868117
	    C     0.8366760340  -0.4285192435  -0.7411490535
	    C    -2.5556872639   1.3672067427   1.3272100740
	    C    -0.4199644450   0.1732268467   1.3396864742
	    N     3.0062853939  -1.6023034995  -2.1823487822
	    O    -3.5374249989   1.8845187647   1.9237676084
	    F     0.5878279101  -0.3820577789   2.0856277264
	    H    -1.3124574344   0.7887421282  -1.8211841232
	    H    -3.2162272924   1.7947429337  -0.6816031543
	    H     1.3066641486  -1.9679470585   0.6949204349
	    H     0.7636238282   0.8872146840  -2.4438485560
	    H    -1.4767454648   0.7097994544   3.0940059726
	    H     3.1570843082  -2.9003269657  -0.5933059030
	    H     2.6205161921  -0.1828113320  -3.6236028474
21
Geometry for iteration 6
	    C    -1.3197327956   0.7917856447  -0.7333582519
	    C    -2.4072757383   1.3516856219  -0.1104931541
	    C     1.5828265123  -1.5182634069  -0.2505290144
	    C     1.2555421053   0.0379234722  -1.9924187863
	    C    -1.4790673724   0.7311822058   2.0156329968
	    C     2.6129683030  -2.0576967974  -1.0001974574
	    C     2.2946217827  -0.5708431388  -2.6714199137
	    C    -0.2642407626   0.1698896943  -0.0374583618
	    C     0.8495771974  -0.4241241879  -0.7320305565
	    C    -2.5612875160   1.3655479317   1.3186173373
	    C    -0.4228946400   0.1738771355   1.3520919842
	    N     2.9921227013  -1.6146560803  -2.2057648115
	    O    -3.5504436872   1.8799287792   1.9055210247
	    F     0.5720006145  -0.3794798510   2.1182662895
	    H    -1.2875900373   0.7869810377  -1.8151343009
	    H    -3.2014102915   1.7934310194  -0.6960474666
	    H     1.3375845392  -1.9575112255   0.7017460289
	    H     0.7695877937   0.8955273882  -2.4327424913
	    H    -1.5000743602   0.7049001469   3.0942097092
	    H     3.1647556875  -2.9041154916  -0.6110867521
	    H     2.5916745881  -0.1940634348  -3.6422392251
21
Geometry for iteration 0
	    C    -1.3159988704   0.7898976822  -0.7337399189
	    C    -2.4046969606   1.3499975991  -0.1129609682
	    C     1.5867917077  -1.5188761263  -0.2524056432
	    C     1.2578328658   0.0394044473  -1.9923344858
	    C    -1.4783032170   0.7322075919   2.0139323803
	    C     2.6149893316  -2.0586654647  -1.0040429615
	    C     2.2945150991  -0.5704067745  -2.6736733065
	    C    -0.2606417906   0.1692770890  -0.0361892645
	    C     0.8526945555  -0.4245866534  -0.7323591950
	    C    -2.5590965623   1.3661224122   1.3155723164
	    C    -0.4210662515   0.1735580588   1.3528556793
	    N     2.9919653145  -1.6149841276  -2.2098575572
	    O    -3.5489410237   1.8809086065   1.9013238708
	    F     0.5738904434  -0.3744915205   2.1219195470
	    H    -1.2823789490   0.7849468922  -1.8153186880
	    H    -3.1975310377   1.7907747969  -0.7008453006
	    H     1.3430712666  -1.9574372864   0.7005205642
	    H     0.7740909930   0.8990280604  -2.4308131309
	    H    -1.4996563822   0.7069152446   3.0925130588
	    H     3.1653971053  -2.9072779392  -0.6177988786
	    H     2.5916076204  -0.1921184529  -3.6437992132
21
Geometry for iteration 32568432
	    C    -1.3151253291   0.7899380386  -0.7336531488
	    C    -2.4043277367   1.3495224206  -0.1132685091
	    C     1.5871484392  -1.5191668970  -0.2529289166
	    C     1.2582264902   0.0393158519  -1.9925823412
	    C    -1.4782013776   0.7323128244   2.0136187375
	    C     2.6146170782  -2.0596138307  -1.0050576535
	    C     2.2950874607  -0.5703468545  -2.6738556989
	    C    -0.2596662231   0.1695473777  -0.0359400251
	    C     0.8533705780  -0.4244983682  -0.7324871727
	    C    -2.5598145206   1.3647191947   1.3152008714
	    C    -0.4200607225   0.1747335522   1.3530925395
	    N     2.9915056887  -1.6158513693  -2.2107893699
	    O    -3.5493740590   1.8801326057   1.9008690012
	    F     0.5735542965  -0.3748903844   2.1225213976
	    H    -1.2812813945   0.7848030334  -1.8152234163
	    H    -3.1968030211   1.7900399151  -0.7017866140
	    H     1.3436991245  -1.9571589678   0.7003474602
	    H     0.7743048046   0.8986952471  -2.4312875358
	    H    -1.4996330466   0.7069073404   3.0922049804
	    H     3.1655011294  -2.9077998303  -0.6185769510
	    H     2.5915732192  -0.1925774535  -3.6443660353
21
Geometry for iteration 9
	    C    -1.3157243170   0.7896390780  -0.7340469334
	    C    -2.4044224072   1.3497389948  -0.1132679828
	    C     1.5870662610  -1.5191347305  -0.2527126577
	    C     1.2581074191   0.0391458430  -1.9926415003
	    C    -1.4780286636   0.7319489876   2.0136253658
	    C     2.6152638850  -2.0589240689  -1.0043499761
	    C     2.2947896525  -0.5706653788  -2.6739803210
	    C    -0.2603672372   0.1690184847  -0.0364962791
	    C     0.8529691089  -0.4248452576  -0.7326662095
	    C    -2.5588220090   1.3658638079   1.3152653019
	    C    -0.4207916982   0.1732994545   1.3525486648
	    N     2.9922398678  -1.6152427319  -2.2101645718
	    O    -3.5486664703   1.8806500023   1.9010168562
	    F     0.5741649968  -0.3747501248   2.1216125325
	    H    -1.2821043956   0.7846882879  -1.8156257025
	    H    -3.1972564843   1.7905161926  -0.7011523151
	    H     1.3433458199  -1.9576958906   0.7002135497
	    H     0.7743655463   0.8987694561  -2.4311201455
	    H    -1.4993818289   0.7066566404   3.0922060443
	    H     3.1656716586  -2.9075365435  -0.6181058931
	    H     2.5918821738  -0.1923770571  -3.6441062277
