21
Geometry for iteration 0
	    C    -1.3451525179   0.7670659630  -0.7806435801
	    C    -2.4231525179   1.3400659630  -0.1076435801
	    C     0.9148474821  -1.8039340370  -0.8636435801
	    C     1.7778474821   0.3900659630  -1.3426435801
	    C    -1.4301525179   0.7240659630   2.0073564199
	    C     2.0018474821  -2.3219340370  -1.5486435801
	    C     2.8268474821  -0.2269340370  -2.0056435801
	    C    -0.3091525179   0.1720659630  -0.0606435801
	    C     0.8078474821  -0.4209340370  -0.7636435801
	    C    -2.4661525179   1.3190659630   1.2863564199
	    C    -0.3521525179   0.1510659630   1.3333564199
	    N     2.9638474821  -1.5659340370  -2.1236435801
	    O    -3.4571525179   1.8460659630   1.9053564199
	    F     0.6358474821  -0.4169340370   2.0403564199
	    H    -1.3261525179   0.7900659630  -1.8686435801
	    H    -3.2191525179   1.7960659630  -0.6936435801
	    H     0.1778474821  -2.4689340370  -0.4256435801
	    H     1.7278474821   1.4720659630  -1.2846435801
	    H    -1.4391525179   0.6940659630   3.0953564199
	    H     2.1308474821  -3.3939340370  -1.6566435801
	    H     3.6088474821   0.3610659630  -2.4736435801
21
Geometry for iteration 0
	    C    -1.3580044237   0.7767401393  -0.7698734118
	    C    -2.4357794709   1.3484385209  -0.1015275380
	    C     0.9348385806  -1.8039088169  -0.8724032043
	    C     1.7908820690   0.3735963426  -1.3525165166
	    C    -1.4398783925   0.7265887472   2.0118404339
	    C     2.0234072493  -2.3245614282  -1.5553168452
	    C     2.8419770876  -0.2438375372  -2.0143578903
	    C    -0.3153240427   0.1766276623  -0.0617095557
	    C     0.8127830086  -0.4226557722  -0.7668195271
	    C    -2.4997825355   1.3360617793   1.3080634985
	    C    -0.3737152911   0.1607015190   1.3284593291
	    N     2.9809822230  -1.5754271531  -2.1290870608
	    O    -3.4890397965   1.8611622857   1.9320750738
	    F     0.6254303872  -0.4154289357   2.0283359193
	    H    -1.3342663613   0.7989209887  -1.8547572771
	    H    -3.2288978487   1.8036567494  -0.6832560974
	    H     0.1993922253  -2.4656416968  -0.4347468334
	    H     1.7399319370   1.4526475872  -1.2968790945
	    H    -1.4420843838   0.6911890452   3.0947512776
	    H     2.1513105077  -3.3957260449  -1.6596470498
	    H     3.6226343961   0.3442412414  -2.4821428123
21
Geometry for iteration 2
	    C    -1.3627533998   0.7845821873  -0.7598248795
	    C    -2.4376423188   1.3528262637  -0.0955322684
	    C     0.9564565403  -1.8054559990  -0.8787134666
	    C     1.8052922702   0.3583469652  -1.3630321982
	    C    -1.4447441211   0.7253564150   2.0113259480
	    C     2.0446174736  -2.3296548122  -1.5595107706
	    C     2.8573598004  -0.2577398129  -2.0246609111
	    C    -0.3129295998   0.1780986402  -0.0656016759
	    C     0.8207049720  -0.4249955965  -0.7690266829
	    C    -2.5253387211   1.3488263805   1.3259513816
	    C    -0.3913436574   0.1673965987   1.3210829326
	    N     2.9973005573  -1.5844159669  -2.1342837011
	    O    -3.5079371193   1.8689854558   1.9496914967
	    F     0.6175009324  -0.4178331975   2.0197565614
	    H    -1.3349329288   0.8075823084  -1.8426274617
	    H    -3.2306767143   1.8094178159  -0.6709180159
	    H     0.2215539032  -2.4634624363  -0.4390473883
	    H     1.7517881403   1.4357224671  -1.3095403850
	    H    -1.4437924840   0.6851782714   3.0907234072
	    H     2.1683962142  -3.4009511750  -1.6575965219
	    H     3.6342526584   0.3337956559  -2.4926981245
21
Geometry for iteration 3
	    C    -1.3556533423   0.7970266129  -0.7492625839
	    C    -2.4319175969   1.3577623470  -0.0900207091
	    C     0.9777966337  -1.8043504188  -0.8751617539
	    C     1.8177485348   0.3479017008  -1.3758928943
	    C    -1.4557576662   0.7197755644   2.0110811813
	    C     2.0603842092  -2.3344223298  -1.5597087870
	    C     2.8647851675  -0.2679251507  -2.0452791829
	    C    -0.3007267181   0.1834766777  -0.0655215156
	    C     0.8338440882  -0.4238224678  -0.7631971662
	    C    -2.5481552065   1.3564215902   1.3383813751
	    C    -0.4078665968   0.1694622856   1.3187970255
	    N     3.0058554457  -1.5930729844  -2.1467923356
	    O    -3.5283955442   1.8692796656   1.9565921085
	    F     0.6023781996  -0.4262707402   2.0237939375
	    H    -1.3196939836   0.8239048937  -1.8312507000
	    H    -3.2270349299   1.8174596483  -0.6589352199
	    H     0.2437590341  -2.4564634370  -0.4264597396
	    H     1.7603635078   1.4248701934  -1.3258650356
	    H    -1.4612094940   0.6735409231   3.0890473964
	    H     2.1765267337  -3.4068063039  -1.6492645386
	    H     3.6330141072   0.3280530552  -2.5210517195
21
Geometry for iteration 4
	    C    -1.3318905890   0.8158599904  -0.7423898387
	    C    -2.4176246534   1.3649239482  -0.0921610346
	    C     0.9934744363  -1.7976814569  -0.8557534256
	    C     1.8235637031   0.3481945088  -1.3892496074
	    C    -1.4703659566   0.7060917423   2.0135262405
	    C     2.0638402058  -2.3340448725  -1.5541024147
	    C     2.8567012060  -0.2725490274  -2.0753443723
	    C    -0.2798512294   0.1978746698  -0.0548704543
	    C     0.8520672980  -0.4159382282  -0.7459820989
	    C    -2.5582847585   1.3513210631   1.3364789214
	    C    -0.4154269453   0.1641190266   1.3276467756
	    N     2.9980945058  -1.5984836530  -2.1667872486
	    O    -3.5455708209   1.8554872067   1.9450435607
	    F     0.5853467579  -0.4418522704   2.0442512751
	    H    -1.2827661091   0.8511677491  -1.8240597243
	    H    -3.2108758210   1.8268312756  -0.6630723809
	    H     0.2646053892  -2.4444341429  -0.3903440972
	    H     1.7650249874   1.4257297560  -1.3470470422
	    H    -1.4904539263   0.6492665386   3.0911813143
	    H     2.1749853450  -3.4073541933  -1.6364916548
	    H     3.6131702723   0.3217020683  -2.5717844304
21
Geometry for iteration 0
	    C    -1.3046723112   0.8373992578  -0.7372569403
	    C    -2.4019293492   1.3733214613  -0.0970878091
	    C     1.0063243174  -1.7878258639  -0.8333876456
	    C     1.8267261537   0.3525075750  -1.4033895264
	    C    -1.4850169706   0.6908411444   2.0148159785
	    C     2.0619501668  -2.3310550869  -1.5479763975
	    C     2.8442910197  -0.2752057495  -2.1057794937
	    C    -0.2574746471   0.2173774608  -0.0421217824
	    C     0.8691745599  -0.4043769148  -0.7300224428
	    C    -2.5644522797   1.3420883850   1.3293593582
	    C    -0.4188299200   0.1605171542   1.3374837585
	    N     2.9840261238  -1.6022142550  -2.1879976940
	    O    -3.5618205999   1.8363373796   1.9281288608
	    F     0.5702431903  -0.4555853939   2.0642083819
	    H    -1.2409574178   0.8826173319  -1.8180548436
	    H    -3.1911805255   1.8367802698  -0.6728441591
	    H     0.2851595519  -2.4295200299  -0.3489456674
	    H     1.7690620015   1.4305636306  -1.3701516519
	    H    -1.5208600646   0.6209312755   3.0914845374
	    H     2.1698583082  -3.4052175920  -1.6229615948
	    H     3.5889511029   0.3144690089  -2.6252589925
21
Geometry for iteration 6
	    C    -1.2775633249   0.8595306179  -0.7319153375
	    C    -2.3868215657   1.3813918487  -0.1017683213
	    C     1.0179762598  -1.7765233524  -0.8105391771
	    C     1.8292973104   0.3574342574  -1.4173566334
	    C    -1.4988302255   0.6746263894   2.0149652739
	    C     2.0584675140  -2.3274859386  -1.5404329727
	    C     2.8310033533  -0.2782676870  -2.1347347956
	    C    -0.2353457576   0.2388193605  -0.0287542994
	    C     0.8853257600  -0.3914549034  -0.7157517947
	    C    -2.5694032079   1.3311971382   1.3215029830
	    C    -0.4206628597   0.1576837454   1.3465482950
	    N     2.9682439136  -1.6061854502  -2.2069018154
	    O    -3.5775680784   1.8141917912   1.9113778634
	    F     0.5579902545  -0.4671647379   2.0802806300
	    H    -1.1990936587   0.9155530052  -1.8112592187
	    H    -3.1711338999   1.8461028314  -0.6831062988
	    H     0.3052904706  -2.4131159434  -0.3071926622
	    H     1.7737472079   1.4358936529  -1.3936331426
	    H    -1.5497270941   0.5905794095   3.0899216373
	    H     2.1631799872  -3.4024925729  -1.6081886041
	    H     3.5648587280   0.3054690143  -2.6759595418
21
Geometry for iteration 7
	    C    -1.2530970394   0.8827387405  -0.7265065516
	    C    -2.3740161595   1.3891386146  -0.1049491453
	    C     1.0288351872  -1.7637000366  -0.7884450268
	    C     1.8328843253   0.3618938818  -1.4316871483
	    C    -1.5112135623   0.6575458151   2.0138080049
	    C     2.0548610759  -2.3240800393  -1.5311364977
	    C     2.8198963257  -0.2830414236  -2.1609214498
	    C    -0.2142419603   0.2619039561  -0.0173909462
	    C     0.9010436008  -0.3772712032  -0.7037242108
	    C    -2.5753321644   1.3189313570   1.3150391825
	    C    -0.4214884313   0.1557828418   1.3530962981
	    N     2.9537081492  -1.6117595087  -2.2217812456
	    O    -3.5932505713   1.7896068561   1.8978327961
	    F     0.5486496684  -0.4774752185   2.0908340105
	    H    -1.1614474469   0.9506982764  -1.8040580587
	    H    -3.1539128988   1.8553089471  -0.6908279356
	    H     0.3236963435  -2.3940732312  -0.2671669848
	    H     1.7795837344   1.4406260897  -1.4189728101
	    H    -1.5758235146   0.5585725545   3.0866706989
	    H     2.1555006098  -3.3999802813  -1.5905212703
	    H     3.5439527713   0.2938710804  -2.7222458274
21
Geometry for iteration 8
	    C    -1.2309108844   0.9090826150  -0.7221125601
	    C    -2.3647935893   1.3944559748  -0.1075790967
	    C     1.0364650524  -1.7497897416  -0.7667362835
	    C     1.8379532820   0.3658931340  -1.4447806515
	    C    -1.5211391487   0.6397049733   2.0110995065
	    C     2.0474620719  -2.3216047595  -1.5210774249
	    C     2.8095039046  -0.2903820551  -2.1845728207
	    C    -0.1948248121   0.2870829304  -0.0092925688
	    C     0.9148115436  -0.3619014109  -0.6945156462
	    C    -2.5830911260   1.3009607980   1.3086936821
	    C    -0.4185526835   0.1585013499   1.3568504987
	    N     2.9366655293  -1.6201238706  -2.2350352341
	    O    -3.6123457937   1.7535437452   1.8858989889
	    F     0.5482018420  -0.4770816311   2.0962872322
	    H    -1.1248373792   0.9970597734  -1.7970064759
	    H    -3.1413845499   1.8620526594  -0.6965672121
	    H     0.3396483118  -2.3724338331  -0.2252959778
	    H     1.7915865043   1.4450277248  -1.4395501781
	    H    -1.5975784721   0.5255641469   3.0816516255
	    H     2.1431195630  -3.3984782904  -1.5705072877
	    H     3.5269102810   0.2781437665  -2.7626609478
21
Geometry for iteration 46379648
	    C    -1.2350974305   0.9114556738  -0.7235434522
	    C    -2.3651694163   1.3997343341  -0.1045533810
	    C     1.0360131121  -1.7438247310  -0.7671657473
	    C     1.8401320818   0.3695522920  -1.4484419149
	    C    -1.5165572591   0.6386748555   2.0098397698
	    C     2.0518110355  -2.3180229608  -1.5131487382
	    C     2.8167259573  -0.2891239714  -2.1793043555
	    C    -0.1948230894   0.2932791174  -0.0140825172
	    C     0.9150093663  -0.3558420510  -0.6990401892
	    C    -2.5778928380   1.3066095477   1.3123801707
	    C    -0.4174202424   0.1562562284   1.3513586535
	    N     2.9451773015  -1.6188908134  -2.2235178344
	    O    -3.6050826387   1.7584003321   1.8935910017
	    F     0.5480126368  -0.4876443933   2.0841945024
	    H    -1.1368827488   0.9932565612  -1.7995850289
	    H    -3.1435490510   1.8672847937  -0.6911989685
	    H     0.3341449027  -2.3648677351  -0.2306925966
	    H     1.7904479278   1.4485797595  -1.4514539902
	    H    -1.5912234702   0.5212657435   3.0800326446
	    H     2.1464125900  -3.3950556683  -1.5601176353
	    H     3.5355825477   0.2774100075  -2.7571095228
21
Geometry for iteration 9
	    C    -1.2322321106   0.9113007482  -0.7227114721
	    C    -2.3642132495   1.3981269753  -0.1059388947
	    C     1.0370213214  -1.7457785884  -0.7668284642
	    C     1.8398313745   0.3687542180  -1.4464857375
	    C    -1.5180660728   0.6402228408   2.0106043450
	    C     2.0504327056  -2.3187951923  -1.5169970014
	    C     2.8139184746  -0.2887338340  -2.1818200812
	    C    -0.1940425345   0.2912114230  -0.0115686748
	    C     0.9156938740  -0.3578402730  -0.6966553839
	    C    -2.5797221757   1.3048204228   1.3106696614
	    C    -0.4172002263   0.1584082161   1.3542373549
	    N     2.9417303109  -1.6184950479  -2.2291632082
	    O    -3.6079462243   1.7570081327   1.8898828935
	    F     0.5489069000  -0.4813468490   2.0903829459
	    H    -1.1300901320   0.9961930777  -1.7982026976
	    H    -3.1417013250   1.8657007259  -0.6937556300
	    H     0.3376609469  -2.3676160330  -0.2278634034
	    H     1.7917929690   1.4478529364  -1.4453670305
	    H    -1.5936148527   0.5244459491   3.0809801765
	    H     2.1455585704  -3.3957504027  -1.5651942909
	    H     3.5320527313   0.2787974764  -2.7597645362
21
Geometry for iteration 0
	    C    -1.2358478076   0.9154167574  -0.7238252601
	    C    -2.3702498086   1.3930367450  -0.1047499765
	    C     1.0480955295  -1.7433258961  -0.7451519809
	    C     1.8497514031   0.3681669362  -1.4395897744
	    C    -1.5197474861   0.6314234994   2.0088006715
	    C     2.0532933215  -2.3203515210  -1.5024421274
	    C     2.8163069376  -0.2936398382  -2.1805190448
	    C    -0.1901775722   0.3054912851  -0.0148095573
	    C     0.9175302185  -0.3544011249  -0.6952509417
	    C    -2.5879553820   1.2869238122   1.3104315456
	    C    -0.4181371563   0.1575685296   1.3485627715
	    N     2.9478755281  -1.6235030828  -2.2145403881
	    O    -3.6117323104   1.7433135899   1.8925440060
	    F     0.5540958027  -0.4840191707   2.0777276515
	    H    -1.1176745129   1.0377632072  -1.7940112633
	    H    -3.1425191424   1.8761713184  -0.6869420371
	    H     0.3215941913  -2.3619209156  -0.2388508700
	    H     1.7757797498   1.4459350229  -1.4780066873
	    H    -1.5900019127   0.5185273370   3.0798060066
	    H     2.1404923554  -3.3978115968  -1.5558519163
	    H     3.5253130262   0.2700263070  -2.7742076142
21
Geometry for iteration 143539280
	    C    -1.2343960297   0.9134449214  -0.7231875322
	    C    -2.3675906789   1.3956691626  -0.1052555199
	    C     1.0424012582  -1.7445137678  -0.7560554130
	    C     1.8446267882   0.3684124567  -1.4430600081
	    C    -1.5191561594   0.6358975262   2.0097905346
	    C     2.0517246864  -2.3196235207  -1.5097306195
	    C     2.8150192069  -0.2911745619  -2.1811968237
	    C    -0.1923948753   0.2984233167  -0.0131931630
	    C     0.9163558182  -0.3560341634  -0.6959568640
	    C    -2.5841535893   1.2959596737   1.3106778639
	    C    -0.4179221269   0.1580549654   1.3514352275
	    N     2.9447052466  -1.6210478417  -2.2218551767
	    O    -3.6101400761   1.7502474047   1.8913858875
	    F     0.5512830438  -0.4826697980   2.0840231623
	    H    -1.1240869765   1.0170427199  -1.7964058395
	    H    -3.1424907357   1.8710438094  -0.6903434009
	    H     0.3291384329  -2.3648934311  -0.2332002148
	    H     1.7836408006   1.4473649015  -1.4617165454
	    H    -1.5920007462   0.5215433903   3.0804918148
	    H     2.1428767290  -3.3968544194  -1.5605032021
	    H     3.5286449556   0.2744984567  -2.7670209546
21
Geometry for iteration 0
	    C    -1.2326933631   0.9114104758  -0.7226789796
	    C    -2.3646745021   1.3982367028  -0.1059064022
	    C     1.0365600689  -1.7456688608  -0.7667959717
	    C     1.8393701220   0.3688639456  -1.4464532450
	    C    -1.5185273253   0.6403325684   2.0106368375
	    C     2.0499714531  -2.3186854647  -1.5169645089
	    C     2.8134572221  -0.2886241064  -2.1817875887
	    C    -0.1945037870   0.2913211506  -0.0115361822
	    C     0.9152326215  -0.3577305454  -0.6966228914
	    C    -2.5801834282   1.3049301503   1.3107021539
	    C    -0.4176614789   0.1585179437   1.3542698474
	    N     2.9412690584  -1.6183853203  -2.2291307156
	    O    -3.6084074768   1.7571178602   1.8899153860
	    F     0.5484456475  -0.4812371215   2.0904154384
	    H    -1.1305513845   0.9963028053  -1.7981702051
	    H    -3.1421625775   1.8658104535  -0.6937231375
	    H     0.3371996944  -2.3675063055  -0.2278309109
	    H     1.7913317165   1.4479626639  -1.4453345380
	    H    -1.5940761053   0.5245556767   3.0810126690
	    H     2.1450973178  -3.3956406751  -1.5651617984
	    H     3.5315914788   0.2789072039  -2.7597320437
21
Geometry for iteration 0
	    C    -1.3451525179   0.7670659630  -0.7806435801
	    C    -2.4231525179   1.3400659630  -0.1076435801
	    C     0.9148474821  -1.8039340370  -0.8636435801
	    C     1.7778474821   0.3900659630  -1.3426435801
	    C    -1.4301525179   0.7240659630   2.0073564199
	    C     2.0018474821  -2.3219340370  -1.5486435801
	    C     2.8268474821  -0.2269340370  -2.0056435801
	    C    -0.3091525179   0.1720659630  -0.0606435801
	    C     0.8078474821  -0.4209340370  -0.7636435801
	    C    -2.4661525179   1.3190659630   1.2863564199
	    C    -0.3521525179   0.1510659630   1.3333564199
	    N     2.9638474821  -1.5659340370  -2.1236435801
	    O    -3.4571525179   1.8460659630   1.9053564199
	    F     0.6358474821  -0.4169340370   2.0403564199
	    H    -1.3261525179   0.7900659630  -1.8686435801
	    H    -3.2191525179   1.7960659630  -0.6936435801
	    H     0.1778474821  -2.4689340370  -0.4256435801
	    H     1.7278474821   1.4720659630  -1.2846435801
	    H    -1.4391525179   0.6940659630   3.0953564199
	    H     2.1308474821  -3.3939340370  -1.6566435801
	    H     3.6088474821   0.3610659630  -2.4736435801
21
Geometry for iteration 1
	    C    -1.3575591675   0.7773727177  -0.7691295574
	    C    -2.4354564460   1.3486932160  -0.1000852830
	    C     0.9358055187  -1.8038447156  -0.8721987950
	    C     1.7913063379   0.3731610420  -1.3533840393
	    C    -1.4412476735   0.7266415077   2.0114402760
	    C     2.0239720273  -2.3251183269  -1.5550580735
	    C     2.8422878501  -0.2438742065  -2.0155462492
	    C    -0.3143583567   0.1765847606  -0.0623215647
	    C     0.8130347866  -0.4224595762  -0.7666155553
	    C    -2.4999980139   1.3359720161   1.3081908722
	    C    -0.3742984188   0.1604353116   1.3281844849
	    N     2.9817357807  -1.5760139988  -2.1298742593
	    O    -3.4895456879   1.8609823341   1.9317895026
	    F     0.6236050017  -0.4157015264   2.0286568648
	    H    -1.3339992746   0.8001804541  -1.8541557498
	    H    -3.2289685185   1.8043439475  -0.6813714632
	    H     0.2003366113  -2.4654485907  -0.4339951262
	    H     1.7401553022   1.4523638496  -1.2980302180
	    H    -1.4441799158   0.6910880884   3.0945594984
	    H     2.1515716351  -3.3964843093  -1.6588295576
	    H     3.6225977461   0.3445112285  -2.4837411893
21
Geometry for iteration 2
	    C    -1.3627530271   0.7857788287  -0.7589750084
	    C    -2.4382766824   1.3538810366  -0.0943603206
	    C     0.9580456375  -1.8052085400  -0.8785295142
	    C     1.8060274932   0.3575413412  -1.3640710374
	    C    -1.4464722576   0.7254905096   2.0118593225
	    C     2.0460015863  -2.3297481337  -1.5594920313
	    C     2.8578790086  -0.2586055134  -2.0260813394
	    C    -0.3125838293   0.1786220508  -0.0655337451
	    C     0.8213338722  -0.4248079439  -0.7687727291
	    C    -2.5264407562   1.3492626341   1.3266849081
	    C    -0.3921543801   0.1672388239   1.3214701702
	    N     2.9986663894  -1.5852782964  -2.1354335033
	    O    -3.5100536640   1.8696673795   1.9506687961
	    F     0.6154314656  -0.4181116222   2.0200082494
	    H    -1.3347914764   0.8093639894  -1.8417182128
	    H    -3.2310226629   1.8106307782  -0.6698022843
	    H     0.2235056946  -2.4631557584  -0.4383808055
	    H     1.7525465604   1.4348484069  -1.3111181312
	    H    -1.4456607183   0.6846862498   3.0911404434
	    H     2.1701667359  -3.4009751061  -1.6573395120
	    H     3.6345989065   0.3324649131  -2.4948862294
21
Geometry for iteration 23629376
	    C    -1.3545834550   0.7989634806  -0.7484350953
	    C    -2.4321803754   1.3593731883  -0.0901465431
	    C     0.9798423196  -1.8039730731  -0.8735747639
	    C     1.8182575138   0.3474062149  -1.3769468069
	    C    -1.4577287738   0.7188167443   2.0119952970
	    C     2.0618185262  -2.3340062189  -1.5592972681
	    C     2.8639982934  -0.2689274698  -2.0480807157
	    C    -0.3006038978   0.1850191658  -0.0638556066
	    C     0.8354828738  -0.4236090301  -0.7616019399
	    C    -2.5488886986   1.3566139726   1.3384543713
	    C    -0.4090522871   0.1685370190   1.3203712289
	    N     3.0057667333  -1.5935744919  -2.1488868032
	    O    -3.5303904611   1.8696416311   1.9569527630
	    F     0.5997135091  -0.4280009111   2.0247312764
	    H    -1.3175660003   0.8268567372  -1.8300489815
	    H    -3.2253081994   1.8189312791  -0.6608064589
	    H     0.2472872839  -2.4565062403  -0.4238287023
	    H     1.7613879381   1.4241295805  -1.3281466008
	    H    -1.4632053982   0.6709085154   3.0894234136
	    H     2.1795635355  -3.4060419655  -1.6491709678
	    H     3.6317775753   0.3253889344  -2.5264217104
21
Geometry for iteration -1940082208
	    C    -1.3307076396   0.8170640103  -0.7423305296
	    C    -2.4173133354   1.3659951075  -0.0926452161
	    C     0.9954242910  -1.7973481577  -0.8537490729
	    C     1.8241536981   0.3483267241  -1.3899398912
	    C    -1.4715905101   0.7044602038   2.0133106572
	    C     2.0651880161  -2.3338202483  -1.5530485973
	    C     2.8559950681  -0.2725468743  -2.0779822840
	    C    -0.2797056043   0.1992970318  -0.0541614634
	    C     0.8538839768  -0.4158049220  -0.7448253174
	    C    -2.5578066631   1.3519452111   1.3361673255
	    C    -0.4161827411   0.1628902660   1.3280774887
	    N     2.9972711702  -1.5983061035  -2.1685489216
	    O    -3.5451532770   1.8566724562   1.9453380960
	    F     0.5831887636  -0.4452482092   2.0430059024
	    H    -1.2804767890   0.8537733023  -1.8236706832
	    H    -3.2081866523   1.8288027846  -0.6651522924
	    H     0.2682809534  -2.4445610613  -0.3866892817
	    H     1.7658193196   1.4257019528  -1.3489885992
	    H    -1.4922652943   0.6454649592   3.0905477839
	    H     2.1779281877  -3.4069837147  -1.6348273789
	    H     3.6112734771   0.3206151856  -2.5775735892
21
Geometry for iteration 5
	    C    -1.3042138630   0.8386812896  -0.7377297923
	    C    -2.4019737765   1.3737504952  -0.0969889789
	    C     1.0074970926  -1.7868780710  -0.8312135096
	    C     1.8273987402   0.3530529189  -1.4045161681
	    C    -1.4856361563   0.6885491428   2.0140197968
	    C     2.0627750540  -2.3309309373  -1.5459931080
	    C     2.8444671978  -0.2751347086  -2.1074411930
	    C    -0.2570959737   0.2192635945  -0.0429706190
	    C     0.8704398504  -0.4036256686  -0.7299474664
	    C    -2.5640277031   1.3423067706   1.3296200781
	    C    -0.4188762012   0.1596377693   1.3366604583
	    N     2.9836919920  -1.6023390716  -2.1880086653
	    O    -3.5602706746   1.8373139942   1.9294441697
	    F     0.5693860757  -0.4590797313   2.0614092658
	    H    -1.2403066262   0.8854793852  -1.8184937666
	    H    -3.1901620548   1.8384283512  -0.6730867994
	    H     0.2870964654  -2.4282916541  -0.3450370905
	    H     1.7698771944   1.4311618867  -1.3722930956
	    H    -1.5224504291   0.6165704153   3.0906560344
	    H     2.1711057159  -3.4052025424  -1.6194014271
	    H     3.5883660796   0.3139511473  -2.6288538878
21
Geometry for iteration 5
	    C    -1.3166501338   0.8288995874  -0.7406954746
	    C    -2.4088429543   1.3708966728  -0.0953439039
	    C     1.0023094428  -1.7912391352  -0.8430019177
	    C     1.8267902107   0.3516494168  -1.3978977236
	    C    -1.4777877817   0.6974536255   2.0132954725
	    C     2.0649717899  -2.3314835424  -1.5500206228
	    C     2.8513895660  -0.2728659265  -2.0933576763
	    C    -0.2675876998   0.2102662900  -0.0492608000
	    C     0.8629970990  -0.4088264038  -0.7379881394
	    C    -2.5601026838   1.3481108471   1.3325083982
	    C    -0.4166984017   0.1622136593   1.3318796992
	    N     2.9916324248  -1.5993772360  -2.1788326267
	    O    -3.5519125709   1.8479655048   1.9370981619
	    F     0.5771703535  -0.4512116140   2.0517612697
	    H    -1.2595990140   0.8706732593  -1.8218144791
	    H    -3.1983815540   1.8346900158  -0.6696047498
	    H     0.2784335887  -2.4355811171  -0.3663475144
	    H     1.7688626372   1.4294123304  -1.3613861567
	    H    -1.5065241044   0.6319473546   3.0903308240
	    H     2.1755047128  -3.4052260575  -1.6275671896
	    H     3.6011130723   0.3182972445  -2.6039206156
21
Geometry for iteration 6
	    C    -1.2667018597   0.8717741793  -0.7305352854
	    C    -2.3817964046   1.3849952520  -0.1022267474
	    C     1.0218602860  -1.7718177804  -0.7951448620
	    C     1.8288259971   0.3590991689  -1.4272078259
	    C    -1.5077808457   0.6606885437   2.0160719179
	    C     2.0563838488  -2.3278730683  -1.5310524580
	    C     2.8246985844  -0.2818414930  -2.1493329562
	    C    -0.2262685786   0.2498616398  -0.0253294832
	    C     0.8906625870  -0.3858067597  -0.7102503071
	    C    -2.5729775500   1.3233689023   1.3201947125
	    C    -0.4228120293   0.1524006793   1.3500860774
	    N     2.9611914928  -1.6110050117  -2.2126163388
	    O    -3.5848186269   1.8013797312   1.9077416139
	    F     0.5493463239  -0.4809889426   2.0866794254
	    H    -1.1822805548   0.9359454328  -1.8099661645
	    H    -3.1647980492   1.8524633332  -0.6843789499
	    H     0.3125750289  -2.4046161864  -0.2797690374
	    H     1.7732135336   1.4381521513  -1.4108477618
	    H    -1.5678522337   0.5667187793   3.0911931274
	    H     2.1594703485  -3.4037115138  -1.5914208891
	    H     3.5538931375   0.2988346727  -2.7024062543
21
Geometry for iteration 23258464
	    C    -1.2379181701   0.9062284229  -0.7241821974
	    C    -2.3669209320   1.3973190863  -0.1050142946
	    C     1.0356935489  -1.7483271321  -0.7663720670
	    C     1.8366191406   0.3671141499  -1.4478993108
	    C    -1.5208264134   0.6365615884   2.0107888584
	    C     2.0529576989  -2.3205052702  -1.5125730153
	    C     2.8126355221  -0.2895400331  -2.1819497329
	    C    -0.1978819581   0.2878977879  -0.0144957060
	    C     0.9131233710  -0.3607576038  -0.6960814875
	    C    -2.5793065057   1.3093594938   1.3132820532
	    C    -0.4229445466   0.1513662905   1.3516121433
	    N     2.9444584224  -1.6193720093  -2.2252232326
	    O    -3.6037786151   1.7670855452   1.8939203199
	    F     0.5396046723  -0.4988615393   2.0863174131
	    H    -1.1382443309   0.9882762547  -1.8004756108
	    H    -3.1447906385   1.8683524043  -0.6901233659
	    H     0.3351978071  -2.3699875762  -0.2275338707
	    H     1.7827356664   1.4461402583  -1.4520023019
	    H    -1.5979239472   0.5160715843   3.0812862017
	    H     2.1503922697  -3.3974889553  -1.5579347363
	    H     3.5290808999   0.2790590234  -2.7624738922
21
Geometry for iteration 0
	    C    -1.2108573959   0.9334285091  -0.7516399639
	    C    -2.3458268511   1.4372756146  -0.1547950107
	    C     1.0143885647  -1.7602755204  -0.7255047564
	    C     1.8600206512   0.3266618022  -1.4367774150
	    C    -1.5348892813   0.6932347818   1.9804570739
	    C     2.0231853923  -2.3648045719  -1.4566081336
	    C     2.8301379695  -0.3611010565  -2.1489164479
	    C    -0.1881691796   0.3105118328  -0.0209016525
	    C     0.9174439781  -0.3696631959  -0.6807676832
	    C    -2.5800187253   1.3623756562   1.2600721318
	    C    -0.4331981873   0.1906259425   1.3421510763
	    N     2.9347223737  -1.6935566067  -2.1710105772
	    O    -3.6039781846   1.8434284434   1.8225034107
	    F     0.5151240125  -0.4573672646   2.0951876093
	    H    -1.0966630134   1.0008065443  -1.8269662970
	    H    -3.1126787727   1.9040289311  -0.7570290799
	    H     0.2964902892  -2.3593556168  -0.1854734561
	    H     1.8326997637   1.4063281026  -1.4533483851
	    H    -1.6232747359   0.5926820025   3.0513374236
	    H     2.0980927439  -3.4440067980  -1.4862988735
	    H     3.5654849701   0.1832046034  -2.7276705509
21
Geometry for iteration 0
	    C    -1.2282675738   0.9148176355  -0.7380261538
	    C    -2.3627594241   1.4067149280  -0.1300152045
	    C     1.0344738812  -1.7484664744  -0.7460918543
	    C     1.8474513119   0.3569468682  -1.4424716060
	    C    -1.5306476039   0.6581843060   1.9955940501
	    C     2.0505143917  -2.3318468014  -1.4847813061
	    C     2.8239518772  -0.3104921833  -2.1656127203
	    C    -0.1938658547   0.2991623515  -0.0177765912
	    C     0.9178276828  -0.3598207259  -0.6885395077
	    C    -2.5857285389   1.3240789966   1.2866047453
	    C    -0.4283655529   0.1696967910   1.3468420806
	    N     2.9487483386  -1.6411466578  -2.1983273718
	    O    -3.6123264270   1.7884305439   1.8581725772
	    F     0.5302316028  -0.4748052468   2.0907440085
	    H    -1.1216333245   0.9901382363  -1.8138729958
	    H    -3.1374122505   1.8718913895  -0.7237156165
	    H     0.3282068358  -2.3623774754  -0.2066424546
	    H     1.8015346865   1.4361798411  -1.4528068117
	    H    -1.6129143253   0.5471758647   3.0663303189
	    H     2.1420194121  -3.4095872548  -1.5223300755
	    H     3.5471972370   0.2495872031  -2.7452770680
21
Geometry for iteration 9
	    C    -1.2209463245   0.9211212420  -0.7353393617
	    C    -2.3592432245   1.4055782950  -0.1287609531
	    C     1.0353437823  -1.7450320816  -0.7396015481
	    C     1.8524065825   0.3554796149  -1.4445573693
	    C    -1.5307803031   0.6494792323   1.9955720151
	    C     2.0468224923  -2.3338047806  -1.4797009531
	    C     2.8242837477  -0.3172769838  -2.1685303421
	    C    -0.1860138649   0.3070069789  -0.0143996081
	    C     0.9231842717  -0.3557661689  -0.6862668832
	    C    -2.5850260300   1.3159545570   1.2863538761
	    C    -0.4235452406   0.1704574399   1.3485291713
	    N     2.9444133122  -1.6482772454  -2.1980716022
	    O    -3.6188542137   1.7670095812   1.8560749273
	    F     0.5352769130  -0.4735874447   2.0908478373
	    H    -1.1121692337   1.0009023555  -1.8103180901
	    H    -3.1351604239   1.8665036948  -0.7237710639
	    H     0.3301334649  -2.3553981031  -0.1956627712
	    H     1.8092504822   1.4346137881  -1.4596245941
	    H    -1.6170186949   0.5306906551   3.0646936171
	    H     2.1353371083  -3.4118361335  -1.5141706504
	    H     3.5458868906   0.2382056292  -2.7537339735
21
Geometry for iteration 9
	    C    -1.2237699662   0.9167225233  -0.7361814391
	    C    -2.3601709751   1.4049030557  -0.1288726468
	    C     1.0357538832  -1.7480049700  -0.7423385608
	    C     1.8507856768   0.3549648366  -1.4430114633
	    C    -1.5298880925   0.6525902273   1.9961149632
	    C     2.0495236842  -2.3340861521  -1.4817329239
	    C     2.8249839790  -0.3151381703  -2.1665682492
	    C    -0.1891011903   0.3018382286  -0.0155884066
	    C     0.9213519277  -0.3590420380  -0.6868974060
	    C    -2.5845492395   1.3187731262   1.2870049173
	    C    -0.4251177180   0.1688302339   1.3481962621
	    N     2.9474470679  -1.6459715435  -2.1976943269
	    O    -3.6147899654   1.7764916994   1.8576888662
	    F     0.5335926968  -0.4754481265   2.0913019831
	    H    -1.1160614142   0.9942713912  -1.8115999181
	    H    -3.1354702631   1.8679552910  -0.7232172495
	    H     0.3300065575  -2.3601443917  -0.2006412375
	    H     1.8062530963   1.4341554873  -1.4557160276
	    H    -1.6141518989   0.5376953351   3.0660617840
	    H     2.1395327493  -3.4119765178  -1.5177391062
	    H     3.5474208984   0.2426445967  -2.7490081340
21
Geometry for iteration 0
	    C    -1.2265844732   0.9123205872  -0.7369994282
	    C    -2.3610763235   1.4042178797  -0.1289884789
	    C     1.0361569818  -1.7509635226  -0.7450651287
	    C     1.8491344125   0.3544498200  -1.4414448804
	    C    -1.5289645033   0.6556872577   1.9966207757
	    C     2.0521974922  -2.3343438497  -1.4837545805
	    C     2.8256349777  -0.3129892316  -2.1645859948
	    C    -0.1921827542   0.2966653032  -0.0167498656
	    C     0.9195107833  -0.3623177741  -0.6875127821
	    C    -2.5840454383   1.3215819484   1.2876314709
	    C    -0.4266824523   0.1671997428   1.3478688062
	    N     2.9504314391  -1.6436437061  -2.1973006462
	    O    -3.6106433264   1.7859334956   1.8591993028
	    F     0.5319147034  -0.4773022951   2.0917707341
	    H    -1.1199502239   0.9876411880  -1.8128462702
	    H    -3.1357291499   1.8693943413  -0.7226888909
	    H     0.3298899364  -2.3648745236  -0.2056157290
	    H     1.8032177871   1.4336827929  -1.4517800861
	    H    -1.6112312247   0.5446788165   3.0673570445
	    H     2.1437025127  -3.4120843031  -1.5213033499
	    H     3.5488803375   0.2470901549  -2.7442503424
