21
Geometry for iteration 0
	    C    -1.3457324877   0.7667040933  -0.7812021795
	    C    -2.4237324877   1.3397040933  -0.1082021795
	    C     0.7152675123  -0.6822959067  -2.1262021795
	    C     1.9772675123  -0.7312959067  -0.0792021795
	    C    -1.4307324877   0.7237040933   2.0067978205
	    C     1.8132675123  -1.2492959067  -2.7532021795
	    C     3.0182675123  -1.2972959067  -0.7982021795
	    C    -0.3097324877   0.1717040933  -0.0612021795
	    C     0.8072675123  -0.4212959067  -0.7642021795
	    C    -2.4667324877   1.3187040933   1.2857978205
	    C    -0.3527324877   0.1507040933   1.3327978205
	    N     2.9662675123  -1.5652959067  -2.1222021795
	    O    -3.4577324877   1.8457040933   1.9047978205
	    F     0.6352675123  -0.4172959067   2.0397978205
	    H    -1.3267324877   0.7897040933  -1.8692021795
	    H    -3.2197324877   1.7957040933  -0.6942021795
	    H    -0.1797324877  -0.4532959067  -2.6952021795
	    H     2.0852675123  -0.5422959067   0.9837978205
	    H    -1.4397324877   0.6937040933   3.0947978205
	    H     1.7932675123  -1.4712959067  -3.8162021795
	    H     3.9512675123  -1.5582959067  -0.3102021795
21
Geometry for iteration 47579568
	    C    -1.3640229997   0.7787637030  -0.7711181268
	    C    -2.4382270639   1.3497757209  -0.1007517169
	    C     0.7377060557  -0.6942778818  -2.1309926734
	    C     1.9914439304  -0.7368933526  -0.0891932574
	    C    -1.4404555008   0.7265394931   2.0118467784
	    C     1.8357095255  -1.2626161560  -2.7544046690
	    C     3.0301538930  -1.3044503047  -0.8109797457
	    C    -0.3159950838   0.1765559425  -0.0653339833
	    C     0.8091798407  -0.4215278787  -0.7645093382
	    C    -2.4956907183   1.3338965970   1.3061826988
	    C    -0.3750387173   0.1618476079   1.3281272677
	    N     2.9838337755  -1.5768261136  -2.1280263057
	    O    -3.4828554108   1.8582274294   1.9297216172
	    F     0.6179244030  -0.4144284969   2.0304582819
	    H    -1.3495810945   0.8069447317  -1.8547524168
	    H    -3.2322098108   1.8066114972  -0.6817439205
	    H    -0.1499610875  -0.4717437717  -2.7068103347
	    H     2.1137704753  -0.5501597994   0.9636165405
	    H    -1.4424941186   0.6898329211   3.0957471564
	    H     1.8141292479  -1.4867306884  -3.8156767490
	    H     3.9622982178  -1.5625552411  -0.3216528734
21
Geometry for iteration 2
	    C    -1.3669941609   0.7826008030  -0.7626945826
	    C    -2.4386553255   1.3516531417  -0.1000353452
	    C     0.7566433236  -0.7022465253  -2.1282052295
	    C     2.0095188528  -0.7438409787  -0.0981322761
	    C    -1.4458167363   0.7274392727   2.0125839903
	    C     1.8502933499  -1.2707245824  -2.7558453393
	    C     3.0436185461  -1.3115770512  -0.8258381414
	    C    -0.3108582275   0.1761525003  -0.0672294101
	    C     0.8155989194  -0.4222751411  -0.7591800196
	    C    -2.5175567415   1.3448082790   1.3183963750
	    C    -0.3909266930   0.1707082601   1.3251062881
	    N     2.9974062059  -1.5855168265  -2.1379907771
	    O    -3.5003371631   1.8656857955   1.9382743062
	    F     0.6065960709  -0.4131326468   2.0284589888
	    H    -1.3514856151   0.8129186448  -1.8439884640
	    H    -3.2302048795   1.8086156390  -0.6789499804
	    H    -0.1291034415  -0.4827771217  -2.7044799925
	    H     2.1477518095  -0.5600628316   0.9478328207
	    H    -1.4458945344   0.6867598045   3.0931292827
	    H     1.8191847092  -1.4932275529  -3.8163549836
	    H     3.9756000824  -1.5670962995  -0.3358580214
21
Geometry for iteration 3
	    C    -1.3659982697   0.7838189565  -0.7537816902
	    C    -2.4362915277   1.3518353816  -0.0986321816
	    C     0.7723595968  -0.7086581131  -2.1244325487
	    C     2.0263987612  -0.7506795871  -0.1077963541
	    C    -1.4532951230   0.7295954924   2.0127890042
	    C     1.8607189996  -1.2766835114  -2.7593055444
	    C     3.0567929048  -1.3177913085  -0.8405021683
	    C    -0.3025105175   0.1740784742  -0.0674283332
	    C     0.8224277443  -0.4237290119  -0.7533815168
	    C    -2.5372659516   1.3545959702   1.3275424950
	    C    -0.4046781917   0.1786776810   1.3244266491
	    N     3.0097273167  -1.5930212439  -2.1500572208
	    O    -3.5166621826   1.8728062922   1.9410886345
	    F     0.5930421610  -0.4120522185   2.0348483072
	    H    -1.3485561284   0.8163778405  -1.8339674911
	    H    -3.2267591021   1.8100335696  -0.6755616512
	    H    -0.1138801831  -0.4918187126  -2.6993148847
	    H     2.1792226149  -0.5680389910   0.9345165105
	    H    -1.4552548584   0.6866424215   3.0914321618
	    H     1.8169949736  -1.4963213769  -3.8194951538
	    H     3.9884366644  -1.5695723331  -0.3483085271
21
Geometry for iteration 4
	    C    -1.3605733961   0.7825066562  -0.7458578066
	    C    -2.4313145707   1.3511291630  -0.0986814636
	    C     0.7825729919  -0.7133411773  -2.1204494168
	    C     2.0416481837  -0.7566528732  -0.1177929214
	    C    -1.4618636718   0.7322412369   2.0133043764
	    C     1.8658105549  -1.2797367917  -2.7641622715
	    C     3.0692885691  -1.3218354921  -0.8550460932
	    C    -0.2920461765   0.1706416807  -0.0642327918
	    C     0.8294059022  -0.4262095708  -0.7478568816
	    C    -2.5517254377   1.3619624857   1.3312781566
	    C    -0.4140984426   0.1841892490   1.3279102966
	    N     3.0192814405  -1.5976400015  -2.1638448845
	    O    -3.5300776708   1.8793271134   1.9367457088
	    F     0.5771715257  -0.4125833697   2.0530946576
	    H    -1.3394260065   0.8179496408  -1.8258999306
	    H    -3.2208265969   1.8119017128  -0.6750193132
	    H    -0.1065509878  -0.5000495884  -2.6922213222
	    H     2.2060024034  -0.5725029668   0.9236229875
	    H    -1.4695091968   0.6882573190   3.0914804413
	    H     1.8084325889  -1.4963320200  -3.8240795406
	    H     4.0012045148  -1.5689301046  -0.3610599452
21
Geometry for iteration 49071616
	    C    -1.3523406640   0.7768352793  -0.7395373988
	    C    -2.4271239309   1.3444377715  -0.1017338544
	    C     0.7886361713  -0.7112187272  -2.1165573198
	    C     2.0561852242  -0.7575548404  -0.1265207086
	    C    -1.4739931635   0.7273451860   2.0139108269
	    C     1.8694767459  -1.2707209900  -2.7695845686
	    C     3.0830762493  -1.3155928721  -0.8693633351
	    C    -0.2822819411   0.1654235816  -0.0562753930
	    C     0.8369752521  -0.4273616941  -0.7423659194
	    C    -2.5637460913   1.3579496130   1.3285396645
	    C    -0.4209037870   0.1826649724   1.3359083633
	    N     3.0287642057  -1.5878392603  -2.1787438808
	    O    -3.5455814106   1.8736348188   1.9255159185
	    F     0.5581748511  -0.4182308260   2.0803371226
	    H    -1.3231657445   0.8176577449  -1.8194655867
	    H    -3.2139506913   1.8077596480  -0.6804496823
	    H    -0.1051839344  -0.5040118850  -2.6836638175
	    H     2.2265323527  -0.5719258535   0.9155003006
	    H    -1.4906002849   0.6808684290   3.0919367096
	    H     1.8015377737  -1.4830172883  -3.8294675016
	    H     4.0169261138  -1.5575001485  -0.3766700923
21
Geometry for iteration 6
	    C    -1.3419816186   0.7735705240  -0.7343404652
	    C    -2.4197102964   1.3446262106  -0.1063419301
	    C     0.7881040008  -0.7141719281  -2.1135933502
	    C     2.0677110828  -0.7603276438  -0.1356325958
	    C    -1.4815118473   0.7308702888   2.0142648012
	    C     1.8672822136  -1.2673755787  -2.7746770080
	    C     3.0934037868  -1.3124931591  -0.8835314098
	    C    -0.2733244575   0.1617135063  -0.0464959403
	    C     0.8420282342  -0.4317405964  -0.7385278392
	    C    -2.5673305305   1.3622066253   1.3229992045
	    C    -0.4234893011   0.1838153062   1.3457619724
	    N     3.0325673569  -1.5815988364  -2.1932078151
	    O    -3.5517678387   1.8807278234   1.9124222423
	    F     0.5412811065  -0.4197404353   2.1103678690
	    H    -1.3032960785   0.8197433202  -1.8137261148
	    H    -3.2011413897   1.8117029946  -0.6896618877
	    H    -0.1110717654  -0.5162458674  -2.6755344807
	    H     2.2394532468  -0.5725462764   0.9076709946
	    H    -1.5059044371   0.6838760306   3.0921436764
	    H     1.7909227302  -1.4778993104  -3.8342759510
	    H     4.0298860629  -1.5510484206  -0.3944363497
21
Geometry for iteration 7
	    C    -1.3357724543   0.7714972738  -0.7313502033
	    C    -2.4150040171   1.3457541105  -0.1090950883
	    C     0.7834972519  -0.7203532170  -2.1092054651
	    C     2.0735575343  -0.7606403153  -0.1391992233
	    C    -1.4876960549   0.7310685478   2.0152862321
	    C     1.8629105963  -1.2661199590  -2.7763077007
	    C     3.0991613899  -1.3065990643  -0.8915183474
	    C    -0.2698285089   0.1583914105  -0.0395232971
	    C     0.8425526008  -0.4380403305  -0.7341359660
	    C    -2.5689582610   1.3644870300   1.3192860591
	    C    -0.4267351906   0.1815492354   1.3528008503
	    N     3.0337304351  -1.5737780384  -2.2015150617
	    O    -3.5546495813   1.8858340163   1.9039687841
	    F     0.5276042243  -0.4270622058   2.1280683784
	    H    -1.2879848937   0.8258474851  -1.8102637312
	    H    -3.1908611020   1.8183336285  -0.6958833660
	    H    -0.1218155744  -0.5339786487  -2.6658429130
	    H     2.2466790989  -0.5722276795   0.9046746693
	    H    -1.5183388856   0.6818263361   3.0930816550
	    H     1.7815681682  -1.4766045371  -3.8355909186
	    H     4.0384934846  -1.5415205008  -0.4060877242
21
Geometry for iteration 0
	    C    -1.3502122371   0.7776953707  -0.7409470285
	    C    -2.4249955040   1.3452978628  -0.1031434841
	    C     0.7907645982  -0.7103586359  -2.1179669496
	    C     2.0583136511  -0.7566947491  -0.1279303383
	    C    -1.4718647366   0.7282052773   2.0125011972
	    C     1.8716051728  -1.2698608986  -2.7709941984
	    C     3.0852046762  -1.3147327807  -0.8707729648
	    C    -0.2801535142   0.1662836730  -0.0576850227
	    C     0.8391036790  -0.4265016027  -0.7437755491
	    C    -2.5616176644   1.3588097043   1.3271300348
	    C    -0.4187753601   0.1835250638   1.3344987336
	    N     3.0308926326  -1.5869791690  -2.1801535105
	    O    -3.5434529837   1.8744949101   1.9241062888
	    F     0.5603032780  -0.4173707346   2.0789274929
	    H    -1.3210373177   0.8185178363  -1.8208752165
	    H    -3.2118222644   1.8086197394  -0.6818593121
	    H    -0.1030555075  -0.5031517936  -2.6850734473
	    H     2.2286607796  -0.5710657622   0.9140906709
	    H    -1.4884718580   0.6817285204   3.0905270799
	    H     1.8036662005  -1.4821571970  -3.8308771314
	    H     4.0190545406  -1.5566400571  -0.3780797220
21
Geometry for iteration 0
	    C    -1.3457324877   0.7667040933  -0.7812021795
	    C    -2.4237324877   1.3397040933  -0.1082021795
	    C     0.7152675123  -0.6822959067  -2.1262021795
	    C     1.9772675123  -0.7312959067  -0.0792021795
	    C    -1.4307324877   0.7237040933   2.0067978205
	    C     1.8132675123  -1.2492959067  -2.7532021795
	    C     3.0182675123  -1.2972959067  -0.7982021795
	    C    -0.3097324877   0.1717040933  -0.0612021795
	    C     0.8072675123  -0.4212959067  -0.7642021795
	    C    -2.4667324877   1.3187040933   1.2857978205
	    C    -0.3527324877   0.1507040933   1.3327978205
	    N     2.9662675123  -1.5652959067  -2.1222021795
	    O    -3.4577324877   1.8457040933   1.9047978205
	    F     0.6352675123  -0.4172959067   2.0397978205
	    H    -1.3267324877   0.7897040933  -1.8692021795
	    H    -3.2197324877   1.7957040933  -0.6942021795
	    H    -0.1797324877  -0.4532959067  -2.6952021795
	    H     2.0852675123  -0.5422959067   0.9837978205
	    H    -1.4397324877   0.6937040933   3.0947978205
	    H     1.7932675123  -1.4712959067  -3.8162021795
	    H     3.9512675123  -1.5582959067  -0.3102021795
21
Geometry for iteration 1
	    C    -1.3640667979   0.7786687386  -0.7703889581
	    C    -2.4380663603   1.3498863901  -0.0991226928
	    C     0.7384103500  -0.6949105166  -2.1323116981
	    C     1.9902058700  -0.7368071670  -0.0907996026
	    C    -1.4404760983   0.7267989980   2.0118109559
	    C     1.8368714403  -1.2631863397  -2.7553207710
	    C     3.0302138115  -1.3042630643  -0.8105757705
	    C    -0.3154413690   0.1760700900  -0.0662246913
	    C     0.8088647681  -0.4218499650  -0.7660305437
	    C    -2.4951644242   1.3339432828   1.3067881684
	    C    -0.3744998326   0.1616187932   1.3278736696
	    N     2.9851371775  -1.5771553137  -2.1279838131
	    O    -3.4822290291   1.8585023009   1.9304602858
	    F     0.6176073201  -0.4144754532   2.0317015739
	    H    -1.3504673895   0.8074497313  -1.8542222244
	    H    -3.2323967413   1.8071536145  -0.6796421150
	    H    -0.1491811073  -0.4728252801  -2.7087732390
	    H     2.1092725336  -0.5486873060   0.9630955467
	    H    -1.4425722203   0.6901701601   3.0958693353
	    H     1.8157328748  -1.4875395304  -3.8166404496
	    H     3.9618629829  -1.5617762043  -0.3198087362
21
Geometry for iteration 2
	    C    -1.3681599725   0.7829945774  -0.7619367113
	    C    -2.4397844173   1.3523261638  -0.0984115801
	    C     0.7575270754  -0.7029584742  -2.1299647711
	    C     2.0087903861  -0.7440389032  -0.0996543287
	    C    -1.4463348000   0.7280351152   2.0129855965
	    C     1.8519287639  -1.2713800437  -2.7566768495
	    C     3.0439885622  -1.3117135748  -0.8257450939
	    C    -0.3112778200   0.1761133467  -0.0677747352
	    C     0.8153776356  -0.4226226002  -0.7609014432
	    C    -2.5178455370   1.3452633269   1.3194118783
	    C    -0.3909645241   0.1708401758   1.3251279461
	    N     2.9988758328  -1.5859439586  -2.1380289434
	    O    -3.5007925862   1.8664951621   1.9400922734
	    F     0.6058172570  -0.4126264411   2.0294758791
	    H    -1.3535139993   0.8138197419  -1.8431666631
	    H    -3.2314696231   1.8095212173  -0.6769657508
	    H    -0.1277421935  -0.4840456265  -2.7071059205
	    H     2.1436033258  -0.5591432864   0.9469154935
	    H    -1.4460497281   0.6873342894   3.0935675680
	    H     1.8219267998  -1.4942719301  -3.8171061779
	    H     3.9756118197  -1.5670033137  -0.3350363579
21
Geometry for iteration 3
	    C    -1.3669668280   0.7838591085  -0.7531122667
	    C    -2.4374584654   1.3522122934  -0.0979981659
	    C     0.7729944735  -0.7090722376  -2.1259155210
	    C     2.0264437002  -0.7513835648  -0.1090024578
	    C    -1.4536837738   0.7302129664   2.0133988386
	    C     1.8621239237  -1.2768388218  -2.7598691252
	    C     3.0573677717  -1.3182512029  -0.8410661256
	    C    -0.3031897157   0.1740347693  -0.0670725819
	    C     0.8225342510  -0.4241663902  -0.7547622846
	    C    -2.5376702541   1.3549270146   1.3281858780
	    C    -0.4048471677   0.1790317249   1.3251789982
	    N     3.0106273310  -1.5930290892  -2.1504432372
	    O    -3.5174103375   1.8735281472   1.9425129716
	    F     0.5924275575  -0.4108081206   2.0363773077
	    H    -1.3496986659   0.8164647047  -1.8330129476
	    H    -3.2274061565   1.8101601408  -0.6752996926
	    H    -0.1127183801  -0.4926858375  -2.7013146154
	    H     2.1755109035  -0.5682564555   0.9335112051
	    H    -1.4551202262   0.6874047281   3.0918549437
	    H     1.8199385473  -1.4968048789  -3.8199295026
	    H     3.9890352034  -1.5705022181  -0.3494554141
21
Geometry for iteration 4
	    C    -1.3604084284   0.7814294272  -0.7451911469
	    C    -2.4316658940   1.3504647621  -0.0992410751
	    C     0.7824645680  -0.7131436099  -2.1213010086
	    C     2.0420705906  -0.7580170541  -0.1186166893
	    C    -1.4620376529   0.7329681820   2.0138076486
	    C     1.8662779791  -1.2787730431  -2.7648216583
	    C     3.0697457019  -1.3224632994  -0.8562252531
	    C    -0.2923549868   0.1700060585  -0.0628274917
	    C     0.8297223690  -0.4267656707  -0.7486594423
	    C    -2.5520593641   1.3618670432   1.3310833308
	    C    -0.4141180340   0.1847848992   1.3295401609
	    N     3.0191889192  -1.5966273501  -2.1648861523
	    O    -3.5307557220   1.8795819649   1.9366764792
	    F     0.5774506515  -0.4098595575   2.0554905580
	    H    -1.3383327485   0.8163351650  -1.8248956513
	    H    -3.2199438270   1.8104624550  -0.6769860664
	    H    -0.1065640227  -0.5000827683  -2.6927493998
	    H     2.2016930473  -0.5746490016   0.9233189729
	    H    -1.4694128113   0.6898469232   3.0916758663
	    H     1.8103467695  -1.4952669398  -3.8247589875
	    H     4.0020250192  -1.5709473946  -0.3639121570
21
Geometry for iteration 62157744
	    C    -1.3533909034   0.7716714778  -0.7385673385
	    C    -2.4299303367   1.3376269773  -0.1021985035
	    C     0.7895701279  -0.7094494313  -2.1176459213
	    C     2.0576752754  -0.7561036361  -0.1276177751
	    C    -1.4753170754   0.7253769967   2.0144682905
	    C     1.8721247979  -1.2651769001  -2.7712639318
	    C     3.0859393576  -1.3105828869  -0.8709954280
	    C    -0.2825395926   0.1629073411  -0.0547193450
	    C     0.8379699528  -0.4267652312  -0.7433898224
	    C    -2.5670111744   1.3521987087   1.3284329832
	    C    -0.4208641184   0.1825391557   1.3378986225
	    N     3.0317944875  -1.5799159080  -2.1807785839
	    O    -3.5498597914   1.8661793653   1.9251544556
	    F     0.5611244145  -0.4121182039   2.0833678182
	    H    -1.3231227758   0.8119906170  -1.8182801953
	    H    -3.2165325669   1.7985153671  -0.6825701150
	    H    -0.1050678292  -0.5043594638  -2.6838814750
	    H     2.2210741982  -0.5733868126   0.9162416915
	    H    -1.4916726391   0.6809905563   3.0924048524
	    H     1.8055979291  -1.4766888519  -3.8314356043
	    H     4.0203728515  -1.5528884569  -0.3796795171
21
Geometry for iteration 6
	    C    -1.3484506965   0.7577665484  -0.7330629708
	    C    -2.4307061653   1.3214610573  -0.1060245286
	    C     0.7905710940  -0.7109822028  -2.1139853732
	    C     2.0732456318  -0.7470539212  -0.1376681601
	    C    -1.4845758140   0.7230747295   2.0153401869
	    C     1.8741596433  -1.2533586177  -2.7769150013
	    C     3.1031447044  -1.2891272024  -0.8868789584
	    C    -0.2742917241   0.1563721033  -0.0449893019
	    C     0.8446695331  -0.4275403958  -0.7394412491
	    C    -2.5773412440   1.3418876634   1.3234934587
	    C    -0.4224277217   0.1832485819   1.3479333570
	    N     3.0431771491  -1.5563641096  -2.1970844159
	    O    -3.5653083065   1.8532937435   1.9126518828
	    F     0.5503648603  -0.4054014940   2.1137467087
	    H    -1.3100572505   0.8026159826  -1.8125301120
	    H    -3.2158976553   1.7805751041  -0.6905834179
	    H    -0.1121235498  -0.5226716508  -2.6735791858
	    H     2.2379814029  -0.5629341397   0.9078792692
	    H    -1.5074524212   0.6808167158   3.0935141239
	    H     1.7984055640  -1.4642951866  -3.8364924718
	    H     4.0419961355  -1.5214924561  -0.3993246338
21
Geometry for iteration 7
	    C    -1.3390088460   0.7552162710  -0.7293602556
	    C    -2.4237770285   1.3227370007  -0.1109800525
	    C     0.7856319269  -0.7213033282  -2.1105026145
	    C     2.0812472315  -0.7510868157  -0.1449425137
	    C    -1.4912691664   0.7257041946   2.0146963076
	    C     1.8710607218  -1.2501409950  -2.7815645280
	    C     3.1124244278  -1.2812337461  -0.9000347737
	    C    -0.2681663711   0.1511254674  -0.0363423010
	    C     0.8459132703  -0.4375754888  -0.7356739272
	    C    -2.5791488614   1.3456997422   1.3171015146
	    C    -0.4258720453   0.1802820246   1.3561803499
	    N     3.0481323141  -1.5413174550  -2.2114485123
	    O    -3.5690848941   1.8607913607   1.9001110375
	    F     0.5337870784  -0.4104897245   2.1389020942
	    H    -1.2882597152   0.8110581454  -1.8078004866
	    H    -3.2017589753   1.7881138387  -0.7004371313
	    H    -0.1250199055  -0.5520269281  -2.6635098614
	    H     2.2446276827  -0.5727235976   0.9030180212
	    H    -1.5209128476   0.6826806371   3.0927187966
	    H     1.7896397220  -1.4582187765  -3.8412458470
	    H     4.0549135966  -1.5077012607  -0.4169168538
21
Geometry for iteration 7
	    C    -1.3431238577   0.7565260106  -0.7320199400
	    C    -2.4266486833   1.3221348421  -0.1092984617
	    C     0.7887068592  -0.7161743812  -2.1130804746
	    C     2.0778870386  -0.7490710024  -0.1421191274
	    C    -1.4873306091   0.7243682222   2.0142312222
	    C     1.8732683692  -1.2518066055  -2.7800643707
	    C     3.1084674542  -1.2851999870  -0.8942586922
	    C    -0.2706184141   0.1537601765  -0.0414892354
	    C     0.8459003736  -0.4325651841  -0.7383932021
	    C    -2.5776565030   1.3437993227   1.3195161175
	    C    -0.4235389820   0.1817457146   1.3512512822
	    N     3.0463691374  -1.5489014544  -2.2050758348
	    O    -3.5666144959   1.8570466247   1.9056140637
	    F     0.5427487538  -0.4080204940   2.1255483507
	    H    -1.2985684427   0.8068939638  -1.8110368491
	    H    -3.2082504629   1.7844075770  -0.6963140375
	    H    -0.1180782060  -0.5373661364  -2.6694051614
	    H     2.2419201487  -0.5677673332   0.9046372724
	    H    -1.5135887438   0.6817047250   3.0923393467
	    H     1.7946918697  -1.4613311054  -3.8397006134
	    H     4.0491567114  -1.5145929296  -0.4089131925
21
Geometry for iteration 0
	    C    -1.3345752060   0.7604111637  -0.7286530674
	    C    -2.4218067709   1.3245371020  -0.1117205622
	    C     0.7857224063  -0.7215934828  -2.1105049093
	    C     2.0845381677  -0.7492694946  -0.1473085368
	    C    -1.4936120282   0.7222367812   2.0138090288
	    C     1.8692738758  -1.2543684577  -2.7815249615
	    C     3.1131663747  -1.2844649007  -0.9018801898
	    C    -0.2640046518   0.1557533715  -0.0352284492
	    C     0.8481827881  -0.4356321956  -0.7360714324
	    C    -2.5806897514   1.3432486306   1.3160406617
	    C    -0.4246576904   0.1817458048   1.3568623589
	    N     3.0458338503  -1.5481904290  -2.2122983698
	    O    -3.5733821236   1.8540484734   1.8984936141
	    F     0.5315288466  -0.4117186496   2.1421304304
	    H    -1.2823996337   0.8168081497  -1.8068217098
	    H    -3.1985525046   1.7905650410  -0.7020236857
	    H    -0.1241784209  -0.5502475751  -2.6636727539
	    H     2.2527556654  -0.5559603192   0.8974306131
	    H    -1.5257491524   0.6745275178   3.0914783795
	    H     1.7857009006  -1.4656479511  -3.8403853642
	    H     4.0566920230  -1.5092096604  -0.4201136374
21
Geometry for iteration 9
	    C    -1.3328560165   0.7572714025  -0.7289242078
	    C    -2.4191549684   1.3256276912  -0.1141442215
	    C     0.7851415460  -0.7232990493  -2.1094521391
	    C     2.0885771370  -0.7472354595  -0.1490405716
	    C    -1.4934785818   0.7256494642   2.0128874565
	    C     1.8695505489  -1.2511712813  -2.7830846971
	    C     3.1183904326  -1.2754027219  -0.9068058100
	    C    -0.2628681443   0.1537099240  -0.0336107501
	    C     0.8496105139  -0.4376508677  -0.7350769981
	    C    -2.5795286250   1.3461128224   1.3134008724
	    C    -0.4261616946   0.1791630926   1.3580408092
	    N     3.0487549455  -1.5388539833  -2.2170503381
	    O    -3.5700373741   1.8630093542   1.8946497826
	    F     0.5271639747  -0.4149623532   2.1457329605
	    H    -1.2791508484   0.8113190586  -1.8069712566
	    H    -3.1943841759   1.7910619353  -0.7065689963
	    H    -0.1264995022  -0.5557536224  -2.6605332242
	    H     2.2517551044  -0.5742507511   0.8998771860
	    H    -1.5246690067   0.6823342241   3.0906783958
	    H     1.7856723146  -1.4600713245  -3.8423821084
	    H     4.0617227976  -1.5033676282  -0.4263047432
21
Geometry for iteration 0
	    C    -1.3424244458   0.7564302180  -0.7326833212
	    C    -2.4259492715   1.3220390494  -0.1099618429
	    C     0.7894062711  -0.7162701739  -2.1137438558
	    C     2.0785864505  -0.7491667951  -0.1427825086
	    C    -1.4866311973   0.7242724295   2.0135678410
	    C     1.8739677811  -1.2519023981  -2.7807277519
	    C     3.1091668661  -1.2852957796  -0.8949220735
	    C    -0.2699190023   0.1536643838  -0.0421526166
	    C     0.8465997855  -0.4326609768  -0.7390565834
	    C    -2.5769570911   1.3437035301   1.3188527363
	    C    -0.4228395701   0.1816499220   1.3505879010
	    N     3.0470685493  -1.5489972470  -2.2057392160
	    O    -3.5659150840   1.8569508321   1.9049506824
	    F     0.5434481657  -0.4081162866   2.1248849695
	    H    -1.2978690308   0.8067981712  -1.8117002303
	    H    -3.2075510511   1.7843117843  -0.6969774187
	    H    -0.1173787941  -0.5374619291  -2.6700685427
	    H     2.2426195606  -0.5678631259   0.9039738912
	    H    -1.5128893320   0.6816089323   3.0916759655
	    H     1.7953912816  -1.4614268980  -3.8403639946
	    H     4.0498561233  -1.5146887222  -0.4095765737
