21
Geometry for iteration 0
	    C     0.1081951330   0.0530880613  -3.5259653461
	    C    -0.9698048670   0.6260880613  -2.8529653461
	    C     1.1441951330  -0.5419119387  -2.8059653461
	    C    -1.0128048670   0.6050880613  -1.4589653461
	    C     1.1011951330  -0.5629119387  -1.4119653461
	    C     1.0091951330  -0.6029119387   1.4290346539
	    C    -1.0958048670   0.5600880613   1.3810346539
	    C     0.9191951330  -0.5969119387   2.8120346539
	    C    -1.0908048670   0.5150880613   2.7660346539
	    C     0.0231951330   0.0100880613  -0.7379653461
	    C    -0.0218048670  -0.0109119387   0.7080346539
	    N    -0.1078048670  -0.0509119387   3.5010346539
	    H     0.1401951330   0.0680880613  -4.6119653461
	    H    -1.7778048670   1.0870880613  -3.4139653461
	    H     1.9831951330  -0.9899119387  -3.3299653461
	    H    -1.8608048670   1.0560880613  -0.9479653461
	    H     1.9161951330  -1.0309119387  -0.8639653461
	    H     1.8631951330  -1.0589119387   0.9390346539
	    H    -1.9178048670   1.0310880613   0.8520346539
	    H     1.6981951330  -1.0439119387   3.4210346539
	    H    -1.9058048670   0.9460880613   3.3380346539
21
Geometry for iteration 1
	    C     0.1096210491   0.0530465067  -3.5560500439
	    C    -0.9625288369   0.6228263607  -2.8818828550
	    C     1.1387699731  -0.5381214209  -2.8341135092
	    C    -1.0051596540   0.6018283894  -1.4923766888
	    C     1.0947178621  -0.5583416258  -1.4446434253
	    C     0.9976222002  -0.5975030655   1.4623412549
	    C    -1.0869119099   0.5542310649   1.4159601071
	    C     0.9094374030  -0.5924354709   2.8449851361
	    C    -1.0824512794   0.5092589360   2.8006143144
	    C     0.0227987719   0.0107908579  -0.7521420492
	    C    -0.0225733641  -0.0106589576   0.7155466458
	    N    -0.1080674031  -0.0518055787   3.5327211272
	    H     0.1421835584   0.0678448225  -4.6383882257
	    H    -1.7684192441   1.0828570210  -3.4396596409
	    H     1.9762439380  -0.9851612614  -3.3542221359
	    H    -1.8524266768   1.0529836067  -0.9959368247
	    H     1.9095460424  -1.0256641849  -0.9102325897
	    H     1.8528585874  -1.0547985199   0.9895292389
	    H    -1.9118464050   1.0262341149   0.9053228882
	    H     1.6890884203  -1.0400006368   3.4492946036
	    H    -1.8974052388   0.9404383288   3.3690604050
21
Geometry for iteration 2
	    C     0.1079574839   0.0508978827  -3.5692554010
	    C    -0.9601378913   0.6198206133  -2.8915045248
	    C     1.1346035568  -0.5375564434  -2.8455549837
	    C    -0.9999811541   0.5986619800  -1.5059388534
	    C     1.0911548274  -0.5567164023  -1.4600516066
	    C     0.9904781400  -0.5926171420   1.4758892443
	    C    -1.0785030242   0.5501539603   1.4278168032
	    C     0.9046263732  -0.5882321645   2.8578689752
	    C    -1.0792832822   0.5053311251   2.8117421692
	    C     0.0240093222   0.0105437170  -0.7600325527
	    C    -0.0211879312  -0.0108061033   0.7129196395
	    N    -0.1094974640  -0.0517895171   3.5415077399
	    H     0.1414266220   0.0687501934  -4.6484184158
	    H    -1.7641155089   1.0841527032  -3.4425839681
	    H     1.9730690122  -0.9817581370  -3.3605500829
	    H    -1.8437494241   1.0502853069  -1.0114799592
	    H     1.9053810229  -1.0212535158  -0.9293615291
	    H     1.8477963140  -1.0512152872   1.0136234194
	    H    -1.9058978262   1.0220319971   0.9260432753
	    H     1.6861039443  -1.0407257697   3.4533028275
	    H    -1.8974961354   0.9400444822   3.3699204646
21
Geometry for iteration 26545440
	    C     0.1120923645   0.0557779699  -3.5703394727
	    C    -0.9577585750   0.6227040756  -2.8929778584
	    C     1.1363540136  -0.5346822706  -2.8443657790
	    C    -0.9992456752   0.6009830393  -1.5079871313
	    C     1.0906693696  -0.5540402907  -1.4594755752
	    C     0.9876840146  -0.5923162805   1.4755281909
	    C    -1.0778355075   0.5498268274   1.4304861335
	    C     0.9030491551  -0.5919018336   2.8576977330
	    C    -1.0764432045   0.5078584783   2.8146421215
	    C     0.0228438869   0.0123422287  -0.7603299733
	    C    -0.0225131857  -0.0097556098   0.7113748725
	    N    -0.1079106956  -0.0525492351   3.5421983200
	    H     0.1435818767   0.0674424285  -4.6492087514
	    H    -1.7660531445   1.0793168112  -3.4435922414
	    H     1.9727398351  -0.9851831956  -3.3566828740
	    H    -1.8458349622   1.0478910604  -1.0141087362
	    H     1.9014642544  -1.0224752471  -0.9268844182
	    H     1.8465423526  -1.0498102516   1.0142076452
	    H    -1.9068466982   1.0235111481   0.9324406862
	    H     1.6912714542  -1.0394265389   3.4476139960
	    H    -1.8977313709   0.9406936169   3.3693150962
21
Geometry for iteration 876098357
	    C     0.1092774829   0.0506605613  -3.5707077737
	    C    -0.9598079000   0.6191833577  -2.8925368075
	    C     1.1351746817  -0.5371247796  -2.8440208259
	    C    -1.0008914419   0.5975270193  -1.5076186818
	    C     1.0894714878  -0.5564678213  -1.4592150980
	    C     0.9868422852  -0.5925137335   1.4754189788
	    C    -1.0780109227   0.5475857707   1.4301765107
	    C     0.9051819749  -0.5879400234   2.8580652582
	    C    -1.0780974731   0.5047233102   2.8145923772
	    C     0.0217352844   0.0099608507  -0.7600225539
	    C    -0.0231248827  -0.0113740829   0.7098927114
	    N    -0.1072863472  -0.0513452204   3.5421291942
	    H     0.1438335042   0.0679860737  -4.6493184897
	    H    -1.7652658082   1.0824807992  -3.4417851010
	    H     1.9753940539  -0.9819729369  -3.3551167291
	    H    -1.8440084987   1.0503885124  -1.0124216005
	    H     1.9033943536  -1.0189261314  -0.9254831718
	    H     1.8445040548  -1.0551218327   1.0156564106
	    H    -1.9084213956   1.0217431687   0.9336855102
	    H     1.6915384901  -1.0437531952   3.4440766165
	    H    -1.8988834849   0.9431532556   3.3655137329
21
Geometry for iteration 43038544
	    C     0.1051326220   0.0431274086  -3.5708825640
	    C    -0.9721306415   0.5968277532  -2.8931852580
	    C     1.1448029923  -0.5196669335  -2.8434321393
	    C    -1.0062752729   0.5877242378  -1.5078638339
	    C     1.1060015634  -0.5265467870  -1.4582231270
	    C     0.9798523303  -0.6051900745   1.4751042176
	    C    -1.0623830264   0.5759177663   1.4311027139
	    C     0.8908847568  -0.6139199066   2.8573676433
	    C    -1.0707082317   0.5181337745   2.8150571575
	    C     0.0342550381   0.0326061334  -0.7592518782
	    C    -0.0111405874   0.0103237293   0.7106344992
	    N    -0.1140669936  -0.0636592654   3.5418343215
	    H     0.1339306130   0.0501047840  -4.6498447590
	    H    -1.7901198221   1.0374726500  -3.4431650771
	    H     1.9897333065  -0.9558918934  -3.3542897346
	    H    -1.8575634477   1.0259008374  -1.0131526687
	    H     1.9291441982  -0.9721979769  -0.9239943322
	    H     1.8287612079  -1.0835122603   1.0148320772
	    H    -1.8829594967   1.0678700609   0.9351617937
	    H     1.6636744857  -1.0941359254   3.4426026030
	    H    -1.8873201640   0.9640659362   3.3662278432
21
Geometry for iteration 6
	    C     0.1005626680   0.0348076118  -3.5711367102
	    C    -0.9848795553   0.5736863087  -2.8939138810
	    C     1.1540054119  -0.5029954717  -2.8429201929
	    C    -1.0120865265   0.5771363375  -1.5081895968
	    C     1.1221035104  -0.4974109484  -1.4573083970
	    C     0.9724345112  -0.6186511241   1.4747065706
	    C    -1.0471822346   0.6034639928   1.4319498427
	    C     0.8761626131  -0.6406859053   2.8565870409
	    C    -1.0637449253   0.5307578575   2.8154426560
	    C     0.0463462238   0.0544666147  -0.7585610360
	    C     0.0004154644   0.0312367414   0.7112950749
	    N    -0.1212719698  -0.0767601073   3.5414578546
	    H     0.1236040606   0.0314361870  -4.6504501621
	    H    -1.8153995294   0.9916786242  -3.4446257164
	    H     2.0036476339  -0.9305977639  -3.3535372155
	    H    -1.8715463590   1.0006288392  -1.0139651919
	    H     1.9544654725  -0.9262545845  -0.9225804915
	    H     1.8125904107  -1.1126874871   1.0139229680
	    H    -1.8579260293   1.1132118013   0.9365604768
	    H     1.6353870771  -1.1453057288   3.4410427325
	    H    -1.8761824981   0.9841922535   3.3668628722
21
Geometry for iteration 959918900
	    C     0.1049076698   0.0432779632  -3.5712887752
	    C    -0.9727124972   0.5972069807  -2.8939049451
	    C     1.1449586325  -0.5197773604  -2.8434491907
	    C    -1.0067629272   0.5880242116  -1.5084335537
	    C     1.1062900671  -0.5267574172  -1.4580907563
	    C     0.9804050051  -0.6054968557   1.4757647713
	    C    -1.0627204411   0.5760650204   1.4309327468
	    C     0.8915488354  -0.6142691769   2.8582017953
	    C    -1.0708594655   0.5181972474   2.8150948267
	    C     0.0344347610   0.0324646920  -0.7592603724
	    C    -0.0113647539   0.0104060033   0.7106170379
	    N    -0.1137808525  -0.0638102768   3.5423251794
	    H     0.1335952050   0.0503402022  -4.6503831677
	    H    -1.7911042639   1.0381235177  -3.4442855520
	    H     1.9900433505  -0.9561009130  -3.3541560407
	    H    -1.8584379916   1.0264470022  -1.0140352145
	    H     1.9296435870  -0.9725520030  -0.9236184319
	    H     1.8297674734  -1.0840595087   1.0158757224
	    H    -1.8835464612   1.0681438546   0.9346965061
	    H     1.6648223077  -1.0947306857   3.4439270667
	    H    -1.8876218102   0.9642115503   3.3661098454
21
Geometry for iteration 0
	    C     0.1097039558   0.0514463292  -3.5706278199
	    C    -0.9593814271   0.6199691256  -2.8924568537
	    C     1.1356011547  -0.5363390117  -2.8439408721
	    C    -1.0004649690   0.5983127872  -1.5075387280
	    C     1.0898979608  -0.5556820534  -1.4591351442
	    C     0.9872687581  -0.5917279656   1.4754989326
	    C    -1.0775844497   0.5483715386   1.4302564645
	    C     0.9056084479  -0.5871542554   2.8581452120
	    C    -1.0776710002   0.5055090781   2.8146723310
	    C     0.0221617574   0.0107466187  -0.7599426001
	    C    -0.0226984098  -0.0105883150   0.7099726652
	    N    -0.1068598743  -0.0505594525   3.5422091480
	    H     0.1442599772   0.0687718416  -4.6492385359
	    H    -1.7648393352   1.0832665671  -3.4417051472
	    H     1.9758205269  -0.9811871690  -3.3550367753
	    H    -1.8435820258   1.0511742803  -1.0123416467
	    H     1.9038208265  -1.0181403635  -0.9254032180
	    H     1.8449305278  -1.0543360648   1.0157363644
	    H    -1.9079949227   1.0225289366   0.9337654640
	    H     1.6919649630  -1.0429674273   3.4441565703
	    H    -1.8984570119   0.9439390235   3.3655936867
